000
 OpenBabel08101817183D

  1  0  0  0  0  0  0  0  0  0999 V2000
    0.0000    0.0000    0.0000 He  0  0  0  0  0  0  0  0  0  0  0  0
M  END
>  <Charge>
0.0

>  <InChI>
1/He

>  <Molecular Formula>
He

>  <Name>
HELIUM

>  <SMILES>
[He]

>  <logK ((\xb1)-2-BUTANOL)>
-1.56

>  <logK (1,4-DIOXANE)>
-1.8

>  <logK (1-OCTANOL)>
-1.72

>  <logK (1-PROPANOL)>
-1.56

>  <logK (2,2,4-TRIMETHYLPENTANE)>
-1.343

>  <logK (ACETONE)>
-1.45

>  <logK (BROMOBENZENE)>
-1.91

>  <logK (CARBON TETRACHLORIDE)>
-1.56

>  <logK (CHLOROBENZENE)>
-1.78

>  <logK (CHLOROFORM)>
-1.542

>  <logK (CYCLOHEXANONE)>
-1.804

>  <logK (CYCLOOCTANE)>
-1.826

>  <logK (DECAN-1-OL)>
-1.748

>  <logK (DECANE)>
-1.524

>  <logK (DICHLOROETHANE)>
-1.81

>  <logK (DICHLOROMETHANE)>
-1.494

>  <logK (DODECANE)>
-1.57

>  <logK (ETHANOL)>
-1.52

>  <logK (ETHYLENE GLYCOL)>
-2.19

>  <logK (FLUOROBENZENE)>
-1.52

>  <logK (HEPTAN-1-OL)>
-1.706

>  <logK (HEPTANE)>
-1.384

>  <logK (HEXADECANE)>
-1.741

>  <logK (HEXANE)>
-1.32

>  <logK (HEXANOL)>
-1.668

>  <logK (IODOBENZENE)>
-2.08

>  <logK (ISOBUTANOL)>
-1.55

>  <logK (ISOPROPANOL)>
-1.54

>  <logK (M-XYLENE)>
-1.69

>  <logK (METHANOL)>
-1.45

>  <logK (METHYLCYCLOHEXANE)>
-1.51

>  <logK (N-BUTANOL)>
-1.58

>  <logK (N-METHYLACETAMIDE)>
-1.8

>  <logK (NONANE)>
-1.493

>  <logK (NONANOL)>
-1.743

>  <logK (O-XYLENE)>
-1.725

>  <logK (OCTANE)>
-1.453

>  <logK (P-XYLENE)>
-1.674

>  <logK (PENTANE)>
-1.26

>  <logK (PENTANOL)>
-1.63

>  <logK (TERT-BUTANOL)>
-1.46

>  <logK (TETRAETHYLENE GLYCOL DIMETHYL ETHER)>
-1.966

>  <logK (TETRAHYDROFURAN)>
-1.63

>  <logK (TOLUENE)>
-1.65

>  <logK (UNDECANE)>
-1.55

>  <logK (UNDECANOL)>
-1.756

>  <mean polarizability>
0.22

>  <dipole moment>
2.17348371433e-15

$$$$
001
 OpenBabel08101817183D

  1  0  0  0  0  0  0  0  0  0999 V2000
    0.0000    0.0000    0.0000 Ne  0  0  0  0  0  0  0  0  0  0  0  0
M  END
>  <Charge>
0.0

>  <InChI>
1/Ne

>  <Molecular Formula>
Ne

>  <Name>
NEON

>  <SMILES>
[Ne]

>  <logK ((\xb1)-2-BUTANOL)>
-1.41

>  <logK (1,4-DIOXANE)>
-1.65

>  <logK (1-OCTANOL)>
-1.57

>  <logK (1-PROPANOL)>
-1.41

>  <logK (2,2,4-TRIMETHYLPENTANE)>
-1.17

>  <logK (ACETONE)>
-1.28

>  <logK (BROMOBENZENE)>
-1.74

>  <logK (CARBON TETRACHLORIDE)>
-1.37

>  <logK (CHLOROBENZENE)>
-1.63

>  <logK (CYCLOHEXANONE)>
-1.654

>  <logK (CYCLOOCTANE)>
-1.604

>  <logK (DECAN-1-OL)>
-1.606

>  <logK (DECANE)>
-1.364

>  <logK (DODECANE)>
-1.43

>  <logK (ETHANOL)>
-1.36

>  <logK (FLUOROBENZENE)>
-1.4

>  <logK (HEPTAN-1-OL)>
-1.543

>  <logK (HEPTANE)>
-1.229

>  <logK (HEXADECANE)>
-1.575

>  <logK (HEXANE)>
-1.161

>  <logK (HEXANOL)>
-1.523

>  <logK (IODOBENZENE)>
-1.93

>  <logK (ISOBUTANOL)>
-1.4

>  <logK (M-XYLENE)>
-1.485

>  <logK (METHANOL)>
-1.31

>  <logK (METHYLCYCLOHEXANE)>
-1.36

>  <logK (N-BUTANOL)>
-1.45

>  <logK (NONANE)>
-1.331

>  <logK (NONANOL)>
-1.594

>  <logK (O-XYLENE)>
-1.564

>  <logK (OCTANE)>
-1.265

>  <logK (P-XYLENE)>
-1.521

>  <logK (PENTANE)>
-1.06

>  <logK (PENTANOL)>
-1.49

>  <logK (TERT-BUTANOL)>
-1.3

>  <logK (TETRAETHYLENE GLYCOL DIMETHYL ETHER)>
-1.815

>  <logK (TETRAHYDROFURAN)>
-1.49

>  <logK (TOLUENE)>
-1.492

>  <logK (UNDECANE)>
-1.39

>  <logK (UNDECANOL)>
-1.637

>  <mean polarizability>
0.45

>  <dipole moment>
1.64000473796e-14

$$$$
002
 OpenBabel08101817183D

  1  0  0  0  0  0  0  0  0  0999 V2000
    0.0000    0.0000    0.0000 Ar  0  0  0  0  0  0  0  0  0  0  0  0
M  END
>  <Charge>
0.0

>  <InChI>
1/Ar

>  <Molecular Formula>
Ar

>  <Name>
ARGON

>  <SMILES>
[Ar]

>  <logK ((\xb1)-1,2-PROPANEDIOL)>
-1.181

>  <logK ((\xb1)-2-BUTANOL)>
-0.61

>  <logK (1,4-DIOXANE)>
-0.78

>  <logK (1-OCTANOL)>
-0.71

>  <logK (1-PROPANOL)>
-0.61

>  <logK (2,2,4-TRIMETHYLPENTANE)>
-0.344

>  <logK (ACETIC ACID)>
-0.663

>  <logK (ACETONE)>
-0.52

>  <logK (BENZONITRILE)>
-0.825

>  <logK (BROMOBENZENE)>
-0.8

>  <logK (CARBON TETRACHLORIDE)>
-0.47

>  <logK (CHLOROBENZENE)>
-0.69

>  <logK (CHLOROFORM)>
-0.609

>  <logK (CYCLOHEXANONE)>
-0.767

>  <logK (CYCLOOCTANE)>
-0.627

>  <logK (DECAN-1-OL)>
-0.728

>  <logK (DECANE)>
-0.509

>  <logK (DICHLOROETHANE)>
-0.76

>  <logK (DICHLOROMETHANE)>
-0.701

>  <logK (DIETHYL ETHER)>
-0.22

>  <logK (DIIODOMETHANE)>
-1.46

>  <logK (DIMETHYLFORMAMIDE)>
-0.86

>  <logK (DODECANE)>
-0.55

>  <logK (ETHANOL)>
-0.58

>  <logK (ETHYLENE GLYCOL)>
-1.41

>  <logK (FLUOROBENZENE)>
-0.53

>  <logK (HEPTAN-1-OL)>
-0.685

>  <logK (HEPTANE)>
-0.379

>  <logK (HEXADECANE)>
-0.688

>  <logK (HEXANE)>
-0.328

>  <logK (HEXANOL)>
-0.662

>  <logK (IODOBENZENE)>
-0.96

>  <logK (ISOBUTANOL)>
-0.59

>  <logK (ISOPROPANOL)>
-0.62

>  <logK (M-XYLENE)>
-0.628

>  <logK (METHANOL)>
-0.57

>  <logK (METHYLCYCLOHEXANE)>
-0.45

>  <logK (N,N-DIMETHYLACETAMIDE)>
-0.87

>  <logK (N-BUTANOL)>
-0.62

>  <logK (N-METHYLACETAMIDE)>
-0.86

>  <logK (N-METHYLFORMAMIDE)>
-0.97

>  <logK (N-METHYLPYRROLIDONE)>
-0.99

>  <logK (NONANE)>
-0.467

>  <logK (NONANOL)>
-0.717

>  <logK (O-XYLENE)>
-0.66

>  <logK (OCTANE)>
-0.437

>  <logK (P-XYLENE)>
-0.608

>  <logK (PENTANE)>
-0.22

>  <logK (PENTANOL)>
-0.64

>  <logK (PROPYLENE CARBONATE)>
-1.06

>  <logK (TERT-BUTANOL)>
-0.55

>  <logK (TETRAETHYLENE GLYCOL DIMETHYL ETHER)>
-0.952

>  <logK (TETRAHYDROFURAN)>
-0.56

>  <logK (TOLUENE)>
-0.603

>  <logK (TRIBUTYL PHOSPHATE)>
-0.71

>  <logK (UNDECANE)>
-0.53

>  <logK (UNDECANOL)>
-0.749

>  <mean polarizability>
1.28

>  <dipole moment>
3.41937504172e-14

$$$$
003
 OpenBabel08101817183D

  1  0  0  0  0  0  0  0  0  0999 V2000
    0.0000    0.0000    0.0000 Kr  0  0  0  0  0  0  0  0  0  0  0  0
M  END
>  <Charge>
0.0

>  <InChI>
1/Kr

>  <Molecular Formula>
Kr

>  <Name>
KRYPTON

>  <SMILES>
[Kr]

>  <logK ((\xb1)-2-BUTANOL)>
-0.17

>  <logK (1,4-DIOXANE)>
-0.3

>  <logK (1-OCTANOL)>
-0.24

>  <logK (1-PROPANOL)>
-0.16

>  <logK (2,2,4-TRIMETHYLPENTANE)>
0.071

>  <logK (ACETIC ACID)>
-0.38

>  <logK (ACETONE)>
-0.07

>  <logK (BROMOBENZENE)>
-0.28

>  <logK (CARBON TETRACHLORIDE)>
0.12

>  <logK (CHLOROBENZENE)>
-0.18

>  <logK (CHLOROFORM)>
0.01

>  <logK (CYCLOHEXANONE)>
-0.274

>  <logK (CYCLOOCTANE)>
-0.204

>  <logK (DECAN-1-OL)>
-0.264

>  <logK (DECANE)>
-0.042

>  <logK (DODECANE)>
-0.09

>  <logK (ETHANOL)>
-0.16

>  <logK (FLUOROBENZENE)>
-0.06

>  <logK (HEPTAN-1-OL)>
-0.219

>  <logK (HEPTANE)>
0.076

>  <logK (HEXADECANE)>
-0.211

>  <logK (HEXANE)>
0.118

>  <logK (HEXANOL)>
-0.2

>  <logK (IODOBENZENE)>
-0.43

>  <logK (ISOBUTANOL)>
-0.16

>  <logK (ISOPROPANOL)>
-0.16

>  <logK (M-XYLENE)>
-0.142

>  <logK (METHANOL)>
-0.19

>  <logK (METHYLCYCLOHEXANE)>
0.04

>  <logK (N-BUTANOL)>
-0.18

>  <logK (NONANE)>
-0.012

>  <logK (NONANOL)>
-0.23

>  <logK (O-XYLENE)>
-0.165

>  <logK (OCTANE)>
0.024

>  <logK (P-XYLENE)>
-0.125

>  <logK (PENTANE)>
0.22

>  <logK (PENTANOL)>
-0.19

>  <logK (TERT-BUTANOL)>
-0.12

>  <logK (TETRAETHYLENE GLYCOL DIMETHYL ETHER)>
-0.485

>  <logK (TETRAHYDROFURAN)>
-0.07

>  <logK (TOLUENE)>
-0.111

>  <logK (UNDECANE)>
-0.06

>  <logK (UNDECANOL)>
-0.274

>  <mean polarizability>
2.01

>  <dipole moment>
7.37471222757e-13

$$$$
004
 OpenBabel08101817183D

  1  0  0  0  0  0  0  0  0  0999 V2000
    0.0000    0.0000    0.0000 Xe  0  0  0  0  0  0  0  0  0  0  0  0
M  END
>  <Charge>
0.0

>  <InChI>
1/Xe

>  <Molecular Formula>
Xe

>  <Name>
XENON

>  <SMILES>
[Xe]

>  <logK ((\xb1)-2-BUTANOL)>
0.39

>  <logK (1,4-DIOXANE)>
0.31

>  <logK (1-OCTANOL)>
0.38

>  <logK (1-PROPANOL)>
0.38

>  <logK (2,2,4-TRIMETHYLPENTANE)>
0.611

>  <logK (ACETIC ACID)>
0.215

>  <logK (ACETONE)>
0.5

>  <logK (BROMOBENZENE)>
0.4

>  <logK (CARBON TETRACHLORIDE)>
0.52

>  <logK (CHLOROBENZENE)>
0.47

>  <logK (CHLOROFORM)>
0.53

>  <logK (CYCLOHEXANONE)>
0.356

>  <logK (DECAN-1-OL)>
0.364

>  <logK (DECANE)>
0.57

>  <logK (DODECANE)>
0.53

>  <logK (ETHANOL)>
0.37

>  <logK (ETHYLENE GLYCOL)>
-0.53

>  <logK (FLUOROBENZENE)>
0.53

>  <logK (HEPTAN-1-OL)>
0.378

>  <logK (HEPTANE)>
0.65

>  <logK (HEXADECANE)>
0.378

>  <logK (HEXANE)>
0.68

>  <logK (HEXANOL)>
0.383

>  <logK (IODOBENZENE)>
0.29

>  <logK (ISOBUTANOL)>
0.4

>  <logK (ISOPROPANOL)>
0.31

>  <logK (METHANOL)>
0.32

>  <logK (METHYLCYCLOHEXANE)>
0.64

>  <logK (N-BUTANOL)>
0.4

>  <logK (NONANE)>
0.6

>  <logK (NONANOL)>
0.373

>  <logK (OCTANE)>
0.62

>  <logK (PENTANE)>
0.72

>  <logK (PENTANOL)>
0.39

>  <logK (PHENYLAMINE)>
-0.277

>  <logK (TERT-BUTANOL)>
0.39

>  <logK (TETRAETHYLENE GLYCOL DIMETHYL ETHER)>
0.127

>  <logK (TETRAHYDROFURAN)>
0.58

>  <logK (TOLUENE)>
0.53

>  <logK (UNDECANE)>
0.55

>  <mean polarizability>
3.53

>  <dipole moment>
6.52795470199e-13

$$$$
005
 OpenBabel08101817183D

  1  0  0  0  0  0  0  0  0  0999 V2000
    0.0000    0.0000    0.0000 Rn  0  0  0  0  0  0  0  0  0  0  0  0
M  END
>  <Charge>
0.0

>  <InChI>
1/Rn

>  <Molecular Formula>
Rn

>  <Name>
RADON

>  <SMILES>
[Rn]

>  <logK ((\xb1)-2-BUTANOL)>
0.82

>  <logK (3-METHYLBUTAN-1-OL)>
0.881

>  <logK (ACETIC ACID)>
0.646

>  <logK (ACETONE)>
0.75

>  <logK (BROMOBENZENE)>
0.95

>  <logK (CHLOROBENZENE)>
1.1

>  <logK (CHLOROFORM)>
1.12

>  <logK (DIETHYL ETHER)>
1.115

>  <logK (ETHANOL)>
0.75

>  <logK (ETHYL ACETATE)>
0.81

>  <logK (HEXADECANE)>
0.877

>  <logK (HEXANE)>
1.137

>  <logK (ISOBUTANOL)>
0.88

>  <logK (ISOPROPANOL)>
0.71

>  <logK (METHANOL)>
0.68

>  <logK (PHENYLAMINE)>
0.544

>  <mean polarizability>
4.27

>  <dipole moment>
1.82987210176e-11

$$$$
006
 OpenBabel08101817183D

  2  0  0  0  0  0  0  0  0  0999 V2000
    0.3751   -0.0000   -0.0000 H   0  0  0  0  0  0  0  0  0  0  0  0
   -0.3751    0.0000   -0.0000 H   0  0  0  0  0  0  0  0  0  0  0  0
M  END
>  <Charge>
0.0

>  <InChI>
1/H2/h1H

>  <Molecular Formula>
H_{2}

>  <Name>
DIHYDROGEN

>  <SMILES>
[HH]

>  <logK ((\xb1)-2-BUTANOL)>
-1.14

>  <logK (1,4-DIOXANE)>
-1.29

>  <logK (1-OCTANOL)>
-1.29

>  <logK (1-PROPANOL)>
-1.12

>  <logK (2,2,4-TRIMETHYLPENTANE)>
-0.939

>  <logK (2-BUTOXYETHANOL)>
-1.227

>  <logK (2-ETHOXYETHANOL)>
-1.243

>  <logK (2-ETHYLHEXANOL)>
-1.205

>  <logK (3-METHYLBUTAN-1-OL)>
-1.2898

>  <logK (ACETIC ACID)>
-1.199

>  <logK (ACETONE)>
-1.0

>  <logK (BROMOBENZENE)>
-1.3

>  <logK (BUTANONE)>
-1.06

>  <logK (BUTYL ACETATE)>
-1.103

>  <logK (CARBON TETRACHLORIDE)>
-1.11

>  <logK (CHLOROBENZENE)>
-1.21

>  <logK (CHLOROFORM)>
-1.18

>  <logK (CYCLOHEXANONE)>
-1.286

>  <logK (DECAN-1-OL)>
-1.34

>  <logK (DECANE)>
-1.091

>  <logK (DIBUTYL ETHER)>
-1.04

>  <logK (DICHLOROETHANE)>
-1.26

>  <logK (DICHLOROMETHANE)>
-1.145

>  <logK (DIETHYL ETHER)>
-0.84

>  <logK (DIMETHYLFORMAMIDE)>
-1.35

>  <logK (DODECAN-1-OL)>
-1.394

>  <logK (DODECANE)>
-1.11

>  <logK (ETHANOL)>
-1.07

>  <logK (ETHYL ACETATE)>
-1.07

>  <logK (ETHYLBENZENE)>
-1.187

>  <logK (ETHYLENE GLYCOL)>
-1.75

>  <logK (HEPTANE)>
-0.943

>  <logK (HEXANE)>
-0.909

>  <logK (HEXANOL)>
-1.18

>  <logK (ISOBUTANOL)>
-1.12

>  <logK (ISOBUTYL ACETATE)>
-1.091

>  <logK (ISOPROPANOL)>
-1.07

>  <logK (M-XYLENE)>
-1.089

>  <logK (METHANOL)>
-1.02

>  <logK (METHOXYETHANOL)>
-1.346

>  <logK (METHYL ACETATE)>
-1.036

>  <logK (N-BUTANOL)>
-1.15

>  <logK (N-METHYLPYRROLIDONE)>
-1.45

>  <logK (NONANE)>
-1.022

>  <logK (NONANOL)>
-1.318

>  <logK (OCTANE)>
-0.99

>  <logK (PENTANE)>
-0.85

>  <logK (PENTANOL)>
-1.22

>  <logK (PENTYL ACETATE)>
-1.398

>  <logK (PHENYLAMINE)>
-1.545

>  <logK (PROPYLENE CARBONATE)>
-1.46

>  <logK (PYRIDINE)>
-1.31

>  <logK (TERT-BUTANOL)>
-1.09

>  <logK (TETRAETHYLENE GLYCOL DIMETHYL ETHER)>
-1.443

>  <logK (TETRAHYDROFURAN)>
-1.07

>  <logK (TOLUENE)>
-1.162

>  <logK (UNDECANE)>
-1.1

>  <mean polarizability>
0.72

>  <dipole moment>
3.94644958499e-15

$$$$
007
 OpenBabel08101817183D

  2  1  0  0  0  0  0  0  0  0999 V2000
    0.6092   -0.0000    0.0000 O   0  0  0  0  0  0  0  0  0  0  0  0
   -0.6092    0.0000    0.0000 O   0  0  0  0  0  0  0  0  0  0  0  0
  1  2  2  0  0  0  0
M  END
>  <Charge>
0.0

>  <InChI>
1/O2/c1-2

>  <Molecular Formula>
O_{2}

>  <Name>
MOLECULAR OXYGEN

>  <SMILES>
O=O

>  <logK ((\xb1)-1,2-PROPANEDIOL)>
-1.235

>  <logK ((\xb1)-2-BUTANOL)>
-0.67

>  <logK (1,4-DIOXANE)>
-0.81

>  <logK (1-OCTANOL)>
-0.76

>  <logK (1-PROPANOL)>
-0.66

>  <logK (2,2,4-TRIMETHYLPENTANE)>
-0.373

>  <logK (2-HEXANONE)>
-0.633

>  <logK (ACETIC ACID)>
-0.71

>  <logK (ACETONE)>
-0.56

>  <logK (BROMOBENZENE)>
-0.85

>  <logK (BUTANONE)>
-0.56

>  <logK (CARBON TETRACHLORIDE)>
-0.52

>  <logK (CHLOROBENZENE)>
-0.73

>  <logK (CHLOROFORM)>
-0.705

>  <logK (CYCLOHEXANONE)>
-0.828

>  <logK (CYCLOOCTANE)>
-0.711

>  <logK (DECAN-1-OL)>
-0.801

>  <logK (DECANE)>
-0.564

>  <logK (DIBUTYL ETHER)>
-0.57

>  <logK (DICHLOROETHANE)>
-0.8

>  <logK (DICHLOROMETHANE)>
-0.661

>  <logK (DIETHYL ETHER)>
-0.35

>  <logK (DODECANE)>
-0.61

>  <logK (ETHANOL)>
-0.62

>  <logK (ETHYL ACETATE)>
-0.66

>  <logK (ETHYLBENZENE)>
-0.615

>  <logK (FLUOROBENZENE)>
-0.41

>  <logK (HEPTAN-1-OL)>
-0.745

>  <logK (HEPTANE)>
-0.471

>  <logK (HEXANE)>
-0.428

>  <logK (HEXANOL)>
-0.72

>  <logK (IODOBENZENE)>
-0.95

>  <logK (ISOBUTANOL)>
-0.65

>  <logK (ISOPROPANOL)>
-0.65

>  <logK (M-XYLENE)>
-0.624

>  <logK (METHANOL)>
-0.6

>  <logK (METHYL ACETATE)>
-0.563

>  <logK (METHYLCYCLOHEXANE)>
-0.51

>  <logK (N-BUTANOL)>
-0.68

>  <logK (N-METHYLFORMAMIDE)>
-0.82

>  <logK (NONANE)>
-0.536

>  <logK (NONANOL)>
-0.78

>  <logK (O-XYLENE)>
-0.646

>  <logK (OCTANE)>
-0.513

>  <logK (P-XYLENE)>
-0.609

>  <logK (PENTAN-2-ONE)>
-0.591

>  <logK (PENTANE)>
-0.36

>  <logK (PENTANOL)>
-0.7

>  <logK (PHENYLAMINE)>
-1.22

>  <logK (PROPYL ETHER)>
-0.474

>  <logK (PYRIDINE)>
-0.857

>  <logK (TERT-BUTANOL)>
-0.57

>  <logK (TETRAHYDROFURAN)>
-0.6

>  <logK (TOLUENE)>
-0.686

>  <logK (UNDECANE)>
-0.58

>  <logK (UNDECANOL)>
-0.81

>  <mean polarizability>
1.51

>  <dipole moment>
1.58468492416e-09

$$$$
008
 OpenBabel08101817183D

  2  1  0  0  0  0  0  0  0  0999 V2000
    0.5513    0.0000   -0.0000 N   0  0  0  0  0  0  0  0  0  0  0  0
   -0.5513    0.0000    0.0000 N   0  0  0  0  0  0  0  0  0  0  0  0
  1  2  3  0  0  0  0
M  END
>  <Charge>
0.0

>  <InChI>
1/N2/c1-2

>  <Molecular Formula>
N_{2}

>  <Name>
MOLECULAR NITROGEN

>  <SMILES>
N#N

>  <logK ((\xb1)-1,2-PROPANEDIOL)>
-1.56

>  <logK ((\xb1)-2-BUTANOL)>
-0.9

>  <logK (1,4-DIOXANE)>
-1.04

>  <logK (1-OCTANOL)>
-1.02

>  <logK (1-PROPANOL)>
-0.88

>  <logK (2,2,4-TRIMETHYLPENTANE)>
-0.637

>  <logK (ACETIC ACID)>
-0.924

>  <logK (ACETONE)>
-0.75

>  <logK (BROMOBENZENE)>
-1.13

>  <logK (BUTANONE)>
-0.79

>  <logK (BUTYL ACETATE)>
-0.799

>  <logK (CARBON TETRACHLORIDE)>
-0.79

>  <logK (CHLOROBENZENE)>
-0.99

>  <logK (CHLOROFORM)>
-0.87

>  <logK (CYCLOHEXANONE)>
-1.054

>  <logK (CYCLOOCTANE)>
-0.965

>  <logK (DECAN-1-OL)>
-1.067

>  <logK (DECANE)>
-0.796

>  <logK (DIBUTYL ETHER)>
-0.68

>  <logK (DICHLOROETHANE)>
-0.84

>  <logK (DICHLOROMETHANE)>
-0.884

>  <logK (DIETHYL ETHER)>
-0.55

>  <logK (DODECANE)>
-0.85

>  <logK (ETHANOL)>
-0.84

>  <logK (ETHYL ACETATE)>
-0.76

>  <logK (ETHYLENE GLYCOL)>
-1.81

>  <logK (HEPTAN-1-OL)>
-0.981

>  <logK (HEPTANE)>
-0.646

>  <logK (HEXANE)>
-0.588

>  <logK (HEXANOL)>
-0.955

>  <logK (ISOBUTANOL)>
-0.89

>  <logK (ISOPROPANOL)>
-0.83

>  <logK (METHANOL)>
-0.81

>  <logK (METHYL ACETATE)>
-0.672

>  <logK (METHYLCYCLOHEXANE)>
-0.74

>  <logK (N-BUTANOL)>
-0.91

>  <logK (N-METHYLACETAMIDE)>
-1.12

>  <logK (N-METHYLPYRROLIDONE)>
-1.25

>  <logK (NONANE)>
-0.741

>  <logK (NONANOL)>
-1.043

>  <logK (OCTANE)>
-0.709

>  <logK (PENTANE)>
-0.53

>  <logK (PENTANOL)>
-0.94

>  <logK (PHENYLAMINE)>
-1.444

>  <logK (PROPYL ETHER)>
-0.668

>  <logK (PROPYLENE CARBONATE)>
-1.2

>  <logK (PYRIDINE)>
-1.122

>  <logK (TERT-BUTANOL)>
-0.82

>  <logK (TETRAETHYLENE GLYCOL DIMETHYL ETHER)>
-1.256

>  <logK (TETRAHYDROFURAN)>
-0.83

>  <logK (TOLUENE)>
-0.881

>  <logK (UNDECANE)>
-0.82

>  <logK (UNDECANOL)>
-1.069

>  <mean polarizability>
1.73

>  <dipole moment>
9.40441019553e-11

$$$$
009
 OpenBabel08101817183D

  3  2  0  0  0  0  0  0  0  0999 V2000
    1.1541   -0.0288    0.0000 N   0  0  0  0  0  0  0  0  0  0  0  0
    0.0174   -0.0004   -0.0000 N   0  0  0  0  0  0  0  0  0  0  0  0
   -1.1714    0.0292    0.0000 O   0  0  0  0  0  0  0  0  0  0  0  0
  1  2  1  0  0  0  0
  2  3  1  0  0  0  0
M  RAD  3   1   3   2   2   3   2
M  END
>  <Charge>
0.0

>  <InChI>
1/N2O/c1-2-3

>  <Molecular Formula>
N_{2}O

>  <Name>
NITROUS OXIDE

>  <SMILES>
[N-]=[N+]=O

>  <logK (1-OCTANOL)>
0.33

>  <logK (1-PROPANOL)>
0.44

>  <logK (2,2,4-TRIMETHYLPENTANE)>
0.505

>  <logK (ACETIC ACID)>
0.658

>  <logK (ACETONE)>
0.77

>  <logK (BUTANONE)>
0.69

>  <logK (BUTYL ACETATE)>
0.715

>  <logK (CARBON TETRACHLORIDE)>
0.63

>  <logK (CHLOROBENZENE)>
0.5

>  <logK (CHLOROFORM)>
0.71

>  <logK (DECAN-1-OL)>
0.4

>  <logK (DECANE)>
0.36

>  <logK (ETHANOL)>
0.45

>  <logK (ETHYLENE GLYCOL)>
-0.13

>  <logK (HEPTANE)>
0.48

>  <logK (HEXANE)>
0.54

>  <logK (HEXANOL)>
0.36

>  <logK (ISOPROPANOL)>
0.32

>  <logK (METHANOL)>
0.51

>  <logK (METHYL ACETATE)>
0.797

>  <logK (N-BUTANOL)>
0.4

>  <logK (OCTANE)>
0.44

>  <logK (PENTANE)>
0.61

>  <logK (PENTANOL)>
0.37

>  <logK (PHENYLAMINE)>
0.149

>  <logK (PYRIDINE)>
0.531

>  <logK (SULFOLANE)>
0.346

>  <mean polarizability>
2.86

>  <dipole moment>
0.136874172323

$$$$
010
 OpenBabel08101817183D

  2  1  0  0  0  0  0  0  0  0999 V2000
    0.5677    0.0000    0.0000 C   0  0  0  0  0  0  0  0  0  0  0  0
   -0.5677   -0.0000    0.0000 O   0  0  0  0  0  0  0  0  0  0  0  0
  1  2  2  0  0  0  0
M  RAD  1   1   3
M  END
>  <Charge>
0.0

>  <InChI>
1/CO/c1-2

>  <Molecular Formula>
CO

>  <Name>
CARBON MONOXIDE

>  <SMILES>
[C-]#[O+]

>  <logK ((\xb1)-2-BUTANOL)>
-0.77

>  <logK (1-OCTANOL)>
-0.88

>  <logK (1-PROPANOL)>
-0.75

>  <logK (ACETIC ACID)>
-0.771

>  <logK (ACETONE)>
-0.59

>  <logK (BENZONITRILE)>
-0.789

>  <logK (BROMOBENZENE)>
-0.87

>  <logK (BUTYL ACETATE)>
-0.641

>  <logK (CARBON TETRACHLORIDE)>
-0.66

>  <logK (CHLOROBENZENE)>
-0.78

>  <logK (CHLOROFORM)>
-0.71

>  <logK (CYCLOOCTANE)>
-0.812

>  <logK (DECAN-1-OL)>
-0.909

>  <logK (DECANE)>
-0.682

>  <logK (DICHLOROETHANE)>
-0.84

>  <logK (DIETHYL ETHER)>
-0.4

>  <logK (DIMETHYLFORMAMIDE)>
-1.06

>  <logK (DODECANE)>
-0.78

>  <logK (ETHANOL)>
-0.7

>  <logK (ETHYL ACETATE)>
-0.6

>  <logK (HEPTANE)>
-0.547

>  <logK (HEXANE)>
-0.483

>  <logK (ISOBUTANOL)>
-0.76

>  <logK (ISOBUTYL ACETATE)>
-0.626

>  <logK (ISOPROPANOL)>
-0.72

>  <logK (METHANOL)>
-0.65

>  <logK (METHYL ACETATE)>
-0.578

>  <logK (METHYLCYCLOHEXANE)>
-0.63

>  <logK (N,N-DIMETHYLACETAMIDE)>
-0.99

>  <logK (OCTANE)>
-0.587

>  <logK (PENTANE)>
-0.4

>  <logK (PENTANOL)>
-0.82

>  <logK (PENTYL ACETATE)>
-0.67

>  <logK (PHENYLAMINE)>
-1.276

>  <logK (PROPYL ACETATE)>
-0.606

>  <logK (PYRIDINE)>
-0.932

>  <logK (TERT-BUTANOL)>
-0.66

>  <logK (TOLUENE)>
-0.74

>  <logK (UNDECANE)>
-0.75

>  <mean polarizability>
1.92

>  <dipole moment>
0.200964783735

$$$$
011
 OpenBabel08101817183D

  3  2  0  0  0  0  0  0  0  0999 V2000
   -0.0000   -0.0000   -0.0000 C   0  0  0  0  0  0  0  0  0  0  0  0
   -1.1690   -0.0593    0.0000 O   0  0  0  0  0  0  0  0  0  0  0  0
    1.1690    0.0593    0.0000 O   0  0  0  0  0  0  0  0  0  0  0  0
  1  2  2  0  0  0  0
  1  3  2  0  0  0  0
M  END
>  <Charge>
0.0

>  <InChI>
1/CO2/c2-1-3

>  <Molecular Formula>
CO_{2}

>  <Name>
CARBON DIOXIDE

>  <SMILES>
C(=O)=O

>  <logK ((\xb1)-1,2-PROPANEDIOL)>
-0.054

>  <logK ((\xb1)-2-BUTANOL)>
0.24

>  <logK (1,4-DIOXANE)>
0.85

>  <logK (1-OCTANOL)>
0.16

>  <logK (1-PROPANOL)>
0.35

>  <logK (2-BUTOXYETHANOL)>
0.1911

>  <logK (4-FORMYLMORPHOLINE)>
0.55

>  <logK (ACETIC ACID)>
0.681

>  <logK (ACETONE)>
0.79

>  <logK (BROMOBENZENE)>
0.26

>  <logK (BUTANONE)>
0.72

>  <logK (BUTYROLACTONE)>
0.44

>  <logK (CARBON TETRACHLORIDE)>
0.445

>  <logK (CHLOROBENZENE)>
0.37

>  <logK (CHLOROFORM)>
0.446

>  <logK (CYCLOHEXANONE)>
0.576

>  <logK (CYCLOOCTANE)>
0.096

>  <logK (DECAN-1-OL)>
0.096

>  <logK (DECANE)>
-0.2

>  <logK (DICHLOROETHANE)>
0.57

>  <logK (DICHLOROMETHANE)>
0.495

>  <logK (DIISOPROPYL ETHER)>
0.545

>  <logK (DIMETHYLFORMAMIDE)>
0.7

>  <logK (DODECANE)>
0.19

>  <logK (ETHANOL)>
0.42

>  <logK (ETHYLBENZENE)>
0.336

>  <logK (ETHYLENE GLYCOL)>
0.1

>  <logK (HEPTANE)>
0.3

>  <logK (ISOBUTANOL)>
0.27

>  <logK (ISOPROPANOL)>
0.31

>  <logK (M-XYLENE)>
0.328

>  <logK (METHANOL)>
0.62

>  <logK (METHOXYETHANOL)>
0.478

>  <logK (METHYL ACETATE)>
0.829

>  <logK (METHYLCYCLOHEXANE)>
0.25

>  <logK (N-BUTANOL)>
0.29

>  <logK (N-METHYLPYRROLIDONE)>
0.63

>  <logK (O-XYLENE)>
0.314

>  <logK (OCTANE)>
0.26

>  <logK (P-XYLENE)>
0.332

>  <logK (PHENYLAMINE)>
0.122

>  <logK (PROPYLENE CARBONATE)>
0.63

>  <logK (PYRIDINE)>
0.554

>  <logK (SULFOLANE)>
0.474

>  <logK (TERT-BUTANOL)>
0.3

>  <logK (TETRAETHYLENE GLYCOL DIMETHYL ETHER)>
0.514

>  <logK (TETRAHYDROFURAN)>
0.82

>  <logK (TOLUENE)>
0.37

>  <logK (TRIBUTYL PHOSPHATE)>
0.5

>  <mean polarizability>
2.53

>  <dipole moment>
7.74369860928e-10

$$$$
012
 OpenBabel08101817183D

  3  2  0  0  0  0  0  0  0  0999 V2000
   -1.2546   -0.2447    0.0000 O   0  0  0  0  0  0  0  0  0  0  0  0
    0.0002    0.4902   -0.0000 S   0  0  0  0  0  0  0  0  0  0  0  0
    1.2545   -0.2456    0.0000 O   0  0  0  0  0  0  0  0  0  0  0  0
  1  2  2  0  0  0  0
  2  3  1  0  0  0  0
M  RAD  2   2   2   3   2
M  END
>  <Charge>
0.0

>  <InChI>
1/O2S/c1-3-2

>  <Molecular Formula>
O_{2}S

>  <Name>
SULFUR DIOXIDE

>  <SMILES>
O=S=O

>  <logK (1,4-DIOXANE)>
2.5

>  <logK (2,2,4-TRIMETHYLPENTANE)>
0.861

>  <logK (ACETONE)>
2.58

>  <logK (BENZONITRILE)>
1.902

>  <logK (DICHLOROETHANE)>
1.87

>  <logK (DIMETHYLFORMAMIDE)>
2.66

>  <logK (ETHYL ACETATE)>
2.36

>  <logK (ETHYLENE GLYCOL)>
2.0

>  <logK (HEPTANE)>
1.0

>  <logK (METHANOL)>
2.08

>  <logK (METHYL ACETATE)>
2.26

>  <logK (N,N-DIMETHYLACETAMIDE)>
2.58

>  <logK (OCTANE)>
0.737

>  <logK (PROPYLENE CARBONATE)>
2.38

>  <logK (SULFOLANE)>
2.41

>  <logK (TETRAETHYLENE GLYCOL DIMETHYL ETHER)>
2.762

>  <logK (TETRAHYDROFURAN)>
2.88

>  <mean polarizability>
3.78

>  <dipole moment>
1.54856664118

$$$$
013
 OpenBabel08101817183D

  5  4  0  0  0  0  0  0  0  0999 V2000
   -0.0000    0.0000   -0.0000 C   0  0  0  0  0  0  0  0  0  0  0  0
    0.2086   -0.7104    0.8067 H   0  0  0  0  0  0  0  0  0  0  0  0
   -0.5884    0.8358    0.3927 H   0  0  0  0  0  0  0  0  0  0  0  0
   -0.5640   -0.5029   -0.7924 H   0  0  0  0  0  0  0  0  0  0  0  0
    0.9438    0.3775   -0.4070 H   0  0  0  0  0  0  0  0  0  0  0  0
  1  3  1  0  0  0  0
  1  2  1  0  0  0  0
  4  1  1  0  0  0  0
  5  1  1  0  0  0  0
M  END
>  <Charge>
0.0

>  <InChI>
1/CH4/h1H4

>  <Molecular Formula>
CH_{4}

>  <Name>
METHANE

>  <SMILES>
C

>  <logK ((\xb1)-2-BUTANOL)>
-0.31

>  <logK (1,4-DIOXANE)>
-0.41

>  <logK (1-OCTANOL)>
-0.38

>  <logK (1-PROPANOL)>
-0.29

>  <logK (2,2,4-TRIMETHYLPENTANE)>
-0.054

>  <logK (4-FORMYLMORPHOLINE)>
-0.88

>  <logK (ACETIC ACID)>
-0.38

>  <logK (ACETONE)>
-0.22

>  <logK (BROMOBENZENE)>
-0.42

>  <logK (CARBON TETRACHLORIDE)>
-0.14

>  <logK (CHLOROBENZENE)>
-0.33

>  <logK (CYCLOOCTANE)>
-0.299

>  <logK (DECAN-1-OL)>
-0.408

>  <logK (DECANE)>
-0.177

>  <logK (DIETHYL ETHER)>
0.02

>  <logK (DIIODOMETHANE)>
-1.07

>  <logK (DIMETHYLFORMAMIDE)>
-0.52

>  <logK (DODECANE)>
-0.23

>  <logK (ETHANOL)>
-0.29

>  <logK (ETHYLENE GLYCOL)>
-1.14

>  <logK (HEPTAN-1-OL)>
-0.353

>  <logK (HEPTANE)>
-0.075

>  <logK (HEXADECANE)>
-0.323

>  <logK (HEXANE)>
-0.025

>  <logK (HEXANOL)>
-0.345

>  <logK (IODOBENZENE)>
-0.61

>  <logK (ISOBUTANOL)>
-0.29

>  <logK (ISOPROPANOL)>
-0.33

>  <logK (M-XYLENE)>
-0.269

>  <logK (METHANOL)>
-0.27

>  <logK (METHYL ACETATE)>
-0.224

>  <logK (METHYLCYCLOHEXANE)>
-0.12

>  <logK (N-BUTANOL)>
-0.31

>  <logK (N-METHYLPYRROLIDONE)>
-0.6

>  <logK (NONANE)>
-0.148

>  <logK (NONANOL)>
-0.388

>  <logK (O-XYLENE)>
-0.294

>  <logK (OCTANE)>
-0.116

>  <logK (P-XYLENE)>
-0.244

>  <logK (PENTANOL)>
-0.33

>  <logK (PHENYLAMINE)>
-0.772

>  <logK (PROPYLENE CARBONATE)>
-0.6

>  <logK (PYRIDINE)>
-0.471

>  <logK (TERT-BUTANOL)>
-0.25

>  <logK (TETRAETHYLENE GLYCOL DIMETHYL ETHER)>
-0.607

>  <logK (TETRAHYDROFURAN)>
-0.18

>  <logK (TOLUENE)>
-0.259

>  <logK (TRIBUTYL PHOSPHATE)>
-0.32

>  <logK (UNDECANE)>
-0.2

>  <logK (UNDECANOL)>
-0.411

>  <mean polarizability>
2.47

>  <dipole moment>
3.56295198044e-05

$$$$
014
 OpenBabel08101817183D

  8  7  0  0  0  0  0  0  0  0999 V2000
   -0.7637   -0.0214    0.0090 C   0  0  0  0  0  0  0  0  0  0  0  0
    0.7637    0.0214   -0.0090 C   0  0  0  0  0  0  0  0  0  0  0  0
   -1.1919    0.5697   -0.8121 H   0  0  0  0  0  0  0  0  0  0  0  0
   -1.1382   -1.0488   -0.0955 H   0  0  0  0  0  0  0  0  0  0  0  0
   -1.1660    0.3813    0.9485 H   0  0  0  0  0  0  0  0  0  0  0  0
    1.1660   -0.3813   -0.9485 H   0  0  0  0  0  0  0  0  0  0  0  0
    1.1382    1.0488    0.0955 H   0  0  0  0  0  0  0  0  0  0  0  0
    1.1919   -0.5697    0.8121 H   0  0  0  0  0  0  0  0  0  0  0  0
  1  5  1  0  0  0  0
  2  1  1  0  0  0  0
  2  7  1  0  0  0  0
  2  8  1  0  0  0  0
  3  1  1  0  0  0  0
  4  1  1  0  0  0  0
  6  2  1  0  0  0  0
M  END
>  <Charge>
0.0

>  <InChI>
1/C2H6/c1-2/h1-2H3

>  <Molecular Formula>
C_{2}H_{6}

>  <Name>
ETHANE

>  <SMILES>
CC

>  <logK ((\xb1)-2-BUTANOL)>
0.45

>  <logK (1,4-DIOXANE)>
0.38

>  <logK (1-HEXADECENE)>
0.497

>  <logK (1-OCTANOL)>
0.42

>  <logK (1-PROPANOL)>
0.45

>  <logK (2,2,4-TRIMETHYLPENTANE)>
0.707

>  <logK (4-FORMYLMORPHOLINE)>
-0.14

>  <logK (ACETIC ACID)>
0.276

>  <logK (ACETONE)>
0.5

>  <logK (BENZONITRILE)>
0.378

>  <logK (BROMOBENZENE)>
0.45

>  <logK (CARBON TETRACHLORIDE)>
0.73

>  <logK (CHLOROBENZENE)>
0.59

>  <logK (CYCLOHEXANONE)>
0.387

>  <logK (DECANE)>
0.651

>  <logK (DIETHYL ETHER)>
0.85

>  <logK (DIIODOMETHANE)>
-0.25

>  <logK (DIMETHYLFORMAMIDE)>
0.22

>  <logK (DODECANE)>
0.58

>  <logK (ETHANOL)>
0.44

>  <logK (ETHYL ACETATE)>
0.49

>  <logK (ETHYLENE GLYCOL)>
-0.63

>  <logK (HEPTAN-1-OL)>
0.44

>  <logK (HEPTANE)>
0.726

>  <logK (HEXADECANE)>
0.492

>  <logK (HEXANE)>
0.757

>  <logK (HEXANOL)>
0.427

>  <logK (IODOBENZENE)>
0.45

>  <logK (ISOBUTANOL)>
0.47

>  <logK (ISOPROPANOL)>
0.48

>  <logK (METHANOL)>
0.38

>  <logK (METHYL ACETATE)>
0.511

>  <logK (N,N-DIMETHYLACETAMIDE)>
0.35

>  <logK (N-BUTANOL)>
0.46

>  <logK (N-METHYLACETAMIDE)>
0.19

>  <logK (N-METHYLPYRROLIDONE)>
0.23

>  <logK (NONANE)>
0.683

>  <logK (OCTANE)>
0.702

>  <logK (PENTANE)>
0.74

>  <logK (PENTANOL)>
0.44

>  <logK (PHENYLAMINE)>
0.165

>  <logK (PROPYLENE CARBONATE)>
0.1

>  <logK (TERT-BUTANOL)>
0.5

>  <logK (TETRAETHYLENE GLYCOL DIMETHYL ETHER)>
0.149

>  <logK (TETRAHYDROFURAN)>
0.62

>  <logK (TOLUENE)>
0.551

>  <logK (TRIBUTYL PHOSPHATE)>
0.4

>  <mean polarizability>
4.32

>  <dipole moment>
1.0444528955e-13

$$$$
015
 OpenBabel08101817183D

 11 10  0  0  0  0  0  0  0  0999 V2000
    1.2485    0.0419    0.3350 C   0  0  0  0  0  0  0  0  0  0  0  0
   -0.0330   -0.5743   -0.2271 C   0  0  0  0  0  0  0  0  0  0  0  0
   -1.2242    0.3823   -0.1672 C   0  0  0  0  0  0  0  0  0  0  0  0
    2.0941   -0.6575    0.2848 H   0  0  0  0  0  0  0  0  0  0  0  0
    1.1181    0.3333    1.3875 H   0  0  0  0  0  0  0  0  0  0  0  0
    1.5298    0.9467   -0.2234 H   0  0  0  0  0  0  0  0  0  0  0  0
    0.1359   -0.8860   -1.2699 H   0  0  0  0  0  0  0  0  0  0  0  0
   -0.2725   -1.4946    0.3285 H   0  0  0  0  0  0  0  0  0  0  0  0
   -2.1362   -0.0750   -0.5744 H   0  0  0  0  0  0  0  0  0  0  0  0
   -1.4361    0.6850    0.8687 H   0  0  0  0  0  0  0  0  0  0  0  0
   -1.0245    1.2984   -0.7422 H   0  0  0  0  0  0  0  0  0  0  0  0
  1  5  1  0  0  0  0
  2  3  1  0  0  0  0
  2  8  1  0  0  0  0
  2  1  1  0  0  0  0
  3 10  1  0  0  0  0
  4  1  1  0  0  0  0
  6  1  1  0  0  0  0
  7  2  1  0  0  0  0
  9  3  1  0  0  0  0
 11  3  1  0  0  0  0
M  END
>  <Charge>
0.0

>  <InChI>
1/C3H8/c1-3-2/h3H2,1-2H3

>  <Molecular Formula>
C_{3}H_{8}

>  <Name>
PROPANE

>  <SMILES>
CCC

>  <logK (1,4-DIOXANE)>
0.91

>  <logK (1-OCTANOL)>
0.97

>  <logK (1-PROPANOL)>
0.97

>  <logK (2-METHYLBUTAN-1-OL)>
0.97

>  <logK (2-PENTANOL)>
0.98

>  <logK (3-METHYLBUTAN-1-OL)>
0.973

>  <logK (ACETIC ACID)>
0.699

>  <logK (ACETONE)>
1.0

>  <logK (ACETOPHENONE)>
0.76

>  <logK (ALLYL ALCOHOL)>
0.82

>  <logK (BENZONITRILE)>
0.816

>  <logK (BROMOBENZENE)>
1.05

>  <logK (CARBON TETRACHLORIDE)>
1.34

>  <logK (CHLOROBENZENE)>
1.18

>  <logK (DECANE)>
1.248

>  <logK (DIMETHYLFORMAMIDE)>
0.68

>  <logK (DODECANE)>
1.11

>  <logK (ETHANOL)>
0.91

>  <logK (ETHYLBENZENE)>
1.185

>  <logK (ETHYLENE GLYCOL)>
0.03

>  <logK (FORMAMIDE)>
-0.14

>  <logK (HEPTAN-1-OL)>
0.87

>  <logK (HEPTANE)>
1.301

>  <logK (HEXADECANE)>
1.05

>  <logK (HEXANE)>
1.32

>  <logK (IODOBENZENE)>
1.11

>  <logK (ISOBUTANOL)>
0.97

>  <logK (ISOPROPANOL)>
0.89

>  <logK (M-XYLENE)>
1.19

>  <logK (METHANOL)>
0.84

>  <logK (N,N-DIMETHYLACETAMIDE)>
0.8

>  <logK (N-BUTANOL)>
0.99

>  <logK (N-METHYLPYRROLIDONE)>
0.65

>  <logK (NONANE)>
1.255

>  <logK (O-XYLENE)>
1.116

>  <logK (OCTANE)>
1.28

>  <logK (P-XYLENE)>
1.146

>  <logK (PENTAN-3-OL)>
0.98

>  <logK (PENTANE)>
1.33

>  <logK (PENTANOL)>
0.97

>  <logK (PHENYLAMINE)>
0.579

>  <logK (PROPYLENE CARBONATE)>
0.43

>  <logK (TERT-AMYL ALCOHOL)>
1.04

>  <logK (TERT-BUTANOL)>
1.02

>  <logK (TETRAETHYLENE GLYCOL DIMETHYL ETHER)>
0.66

>  <logK (TETRAHYDROPYRAN)>
1.22

>  <logK (TOLUENE)>
1.177

>  <logK (TRIBUTYL PHOSPHATE)>
0.96

>  <mean polarizability>
6.21

>  <dipole moment>
0.0972711897949

$$$$
016
 OpenBabel08101817183D

 14 13  0  0  0  0  0  0  0  0999 V2000
   -1.9513    0.1170   -0.3083 C   0  0  0  0  0  0  0  0  0  0  0  0
   -0.5257   -0.3677   -0.5702 C   0  0  0  0  0  0  0  0  0  0  0  0
    0.5257    0.3677    0.2634 C   0  0  0  0  0  0  0  0  0  0  0  0
    1.9513   -0.1170    0.0015 C   0  0  0  0  0  0  0  0  0  0  0  0
   -2.2291   -0.0204    0.7467 H   0  0  0  0  0  0  0  0  0  0  0  0
   -2.0546    1.1873   -0.5387 H   0  0  0  0  0  0  0  0  0  0  0  0
   -2.6844   -0.4269   -0.9190 H   0  0  0  0  0  0  0  0  0  0  0  0
   -0.2843   -0.2498   -1.6396 H   0  0  0  0  0  0  0  0  0  0  0  0
   -0.4575   -1.4487   -0.3636 H   0  0  0  0  0  0  0  0  0  0  0  0
    0.4575    1.4487    0.0568 H   0  0  0  0  0  0  0  0  0  0  0  0
    0.2843    0.2498    1.3328 H   0  0  0  0  0  0  0  0  0  0  0  0
    2.0546   -1.1873    0.2319 H   0  0  0  0  0  0  0  0  0  0  0  0
    2.2291    0.0204   -1.0536 H   0  0  0  0  0  0  0  0  0  0  0  0
    2.6844    0.4269    0.6121 H   0  0  0  0  0  0  0  0  0  0  0  0
  1  5  1  0  0  0  0
  2  9  1  0  0  0  0
  2  1  1  0  0  0  0
  2  3  1  0  0  0  0
  3 11  1  0  0  0  0
  4 12  1  0  0  0  0
  4  3  1  0  0  0  0
  4 14  1  0  0  0  0
  6  1  1  0  0  0  0
  7  1  1  0  0  0  0
  8  2  1  0  0  0  0
 10  3  1  0  0  0  0
 13  4  1  0  0  0  0
M  END
>  <Charge>
0.0

>  <InChI>
1/C4H10/c1-3-4-2/h3-4H2,1-2H3

>  <Molecular Formula>
C_{4}H_{10}

>  <Name>
N-BUTANE

>  <SMILES>
CCCC

>  <logK (1,4-DIOXANE)>
1.56

>  <logK (1-OCTANOL)>
1.53

>  <logK (1-PROPANOL)>
1.45

>  <logK (2-METHYLBUTAN-1-OL)>
1.49

>  <logK (2-PENTANOL)>
1.49

>  <logK (3-METHYLBUTAN-1-OL)>
1.4798

>  <logK (ACETIC ACID)>
0.886

>  <logK (ACETONE)>
1.56

>  <logK (ACETOPHENONE)>
1.37

>  <logK (ALLYL ALCOHOL)>
1.31

>  <logK (BENZONITRILE)>
1.324

>  <logK (BUTANONE)>
1.69

>  <logK (CARBON TETRACHLORIDE)>
1.96

>  <logK (CHLOROBENZENE)>
1.7

>  <logK (DECANE)>
1.786

>  <logK (DIBUTYL ETHER)>
1.79

>  <logK (DIMETHYLFORMAMIDE)>
1.08

>  <logK (DODECANE)>
1.66

>  <logK (ETHANOL)>
1.4

>  <logK (ETHYLENE GLYCOL)>
0.21

>  <logK (FORMAMIDE)>
0.09

>  <logK (HEPTAN-1-OL)>
1.43

>  <logK (HEPTANE)>
1.851

>  <logK (HEXADECANE)>
1.615

>  <logK (HEXANE)>
1.87

>  <logK (ISOBUTANOL)>
1.49

>  <logK (ISOPROPANOL)>
1.49

>  <logK (M-XYLENE)>
1.713

>  <logK (METHANOL)>
1.27

>  <logK (N,N-DIMETHYLACETAMIDE)>
1.28

>  <logK (N-BUTANOL)>
1.37

>  <logK (N-METHYLPYRROLIDONE)>
1.14

>  <logK (NONANE)>
1.808

>  <logK (O-XYLENE)>
1.692

>  <logK (OCTANE)>
1.831

>  <logK (P-XYLENE)>
1.709

>  <logK (PENTAN-3-OL)>
1.52

>  <logK (PENTANE)>
1.91

>  <logK (PENTANOL)>
1.49

>  <logK (PHENYLAMINE)>
1.024

>  <logK (PROPYLENE CARBONATE)>
0.88

>  <logK (SULFOLANE)>
0.59

>  <logK (TERT-AMYL ALCOHOL)>
1.58

>  <logK (TERT-BUTANOL)>
1.52

>  <logK (TETRAETHYLENE GLYCOL DIMETHYL ETHER)>
1.132

>  <logK (TETRAHYDROPYRAN)>
1.79

>  <logK (TOLUENE)>
1.744

>  <logK (TRIBUTYL PHOSPHATE)>
1.42

>  <mean polarizability>
8.11

>  <dipole moment>
7.20326368686e-05

$$$$
017
 OpenBabel08101817183D

 14 13  0  0  0  0  0  0  0  0999 V2000
   -0.4524    1.3853    0.0878 C   0  0  0  0  0  0  0  0  0  0  0  0
    0.1309    0.0480   -0.3795 C   0  0  0  0  0  0  0  0  0  0  0  0
   -0.9403   -1.0472   -0.3880 C   0  0  0  0  0  0  0  0  0  0  0  0
    1.3300   -0.3610    0.4819 C   0  0  0  0  0  0  0  0  0  0  0  0
    0.3035    2.1830    0.0659 H   0  0  0  0  0  0  0  0  0  0  0  0
   -1.2933    1.7004   -0.5460 H   0  0  0  0  0  0  0  0  0  0  0  0
   -0.8248    1.3078    1.1209 H   0  0  0  0  0  0  0  0  0  0  0  0
    0.4884    0.1789   -1.4159 H   0  0  0  0  0  0  0  0  0  0  0  0
   -1.3313   -1.2172    0.6269 H   0  0  0  0  0  0  0  0  0  0  0  0
   -0.5360   -2.0020   -0.7528 H   0  0  0  0  0  0  0  0  0  0  0  0
   -1.7896   -0.7737   -1.0300 H   0  0  0  0  0  0  0  0  0  0  0  0
    1.0254   -0.5049    1.5300 H   0  0  0  0  0  0  0  0  0  0  0  0
    1.7731   -1.3041    0.1320 H   0  0  0  0  0  0  0  0  0  0  0  0
    2.1163    0.4069    0.4666 H   0  0  0  0  0  0  0  0  0  0  0  0
  1  7  1  0  0  0  0
  2  1  1  0  0  0  0
  2  4  1  0  0  0  0
  3  2  1  0  0  0  0
  3  9  1  0  0  0  0
  4 12  1  0  0  0  0
  5  1  1  0  0  0  0
  6  1  1  0  0  0  0
  8  2  1  0  0  0  0
 10  3  1  0  0  0  0
 11  3  1  0  0  0  0
 13  4  1  0  0  0  0
 14  4  1  0  0  0  0
M  END
>  <Charge>
0.0

>  <InChI>
1/C4H10/c1-4(2)3/h4H,1-3H3

>  <Molecular Formula>
C_{4}H_{10}

>  <Name>
ISOBUTANE

>  <SMILES>
CC(C)C

>  <logK ((\xb1)-2-BUTANOL)>
1.31

>  <logK (1-PROPANOL)>
1.3

>  <logK (2-ETHOXYETHANOL)>
1.061

>  <logK (2-METHYLBUTAN-1-OL)>
1.32

>  <logK (2-PENTANOL)>
1.32

>  <logK (3-METHYLBUTAN-1-OL)>
1.32

>  <logK (ACETIC ACID)>
0.959

>  <logK (ACETONE)>
1.37

>  <logK (ALLYL ALCOHOL)>
1.13

>  <logK (CARBON TETRACHLORIDE)>
1.74

>  <logK (CHLOROBENZENE)>
1.65

>  <logK (DECANE)>
1.637

>  <logK (DIETHYL ETHER)>
1.71

>  <logK (DIMETHYLFORMAMIDE)>
0.97

>  <logK (ETHANOL)>
1.2

>  <logK (ETHYL ACETATE)>
1.58

>  <logK (ETHYLENE GLYCOL)>
0.14

>  <logK (HEPTAN-1-OL)>
1.22

>  <logK (HEPTANE)>
1.694

>  <logK (HEXADECANE)>
1.409

>  <logK (HEXANE)>
1.71

>  <logK (ISOBUTANOL)>
1.32

>  <logK (ISOPROPANOL)>
1.39

>  <logK (M-XYLENE)>
1.518

>  <logK (METHANOL)>
1.07

>  <logK (N-BUTANOL)>
1.4

>  <logK (N-METHYLPYRROLIDONE)>
0.88

>  <logK (NONANE)>
1.659

>  <logK (O-XYLENE)>
1.495

>  <logK (OCTANE)>
1.683

>  <logK (P-XYLENE)>
1.509

>  <logK (PENTAN-3-OL)>
1.34

>  <logK (PENTANE)>
1.75

>  <logK (PENTANOL)>
1.31

>  <logK (PHENYLAMINE)>
0.788

>  <logK (PROPYLENE CARBONATE)>
0.64

>  <logK (TERT-AMYL ALCOHOL)>
1.41

>  <logK (TERT-BUTANOL)>
1.36

>  <logK (TETRAHYDROPYRAN)>
1.62

>  <logK (TOLUENE)>
1.55

>  <mean polarizability>
8.12

>  <dipole moment>
0.147914395843

$$$$
018
 OpenBabel08101817183D

 17 16  0  0  0  0  0  0  0  0999 V2000
    2.3441   -0.6821   -0.1612 C   0  0  0  0  0  0  0  0  0  0  0  0
    0.8174   -0.7424   -0.1088 C   0  0  0  0  0  0  0  0  0  0  0  0
    0.1859    0.5586    0.3949 C   0  0  0  0  0  0  0  0  0  0  0  0
   -1.3422    0.5244    0.5288 C   0  0  0  0  0  0  0  0  0  0  0  0
   -2.0930    0.4124   -0.7997 C   0  0  0  0  0  0  0  0  0  0  0  0
    2.7682   -0.4783    0.8328 H   0  0  0  0  0  0  0  0  0  0  0  0
    2.7753   -1.6268   -0.5191 H   0  0  0  0  0  0  0  0  0  0  0  0
    2.6886    0.1162   -0.8345 H   0  0  0  0  0  0  0  0  0  0  0  0
    0.4287   -0.9856   -1.1097 H   0  0  0  0  0  0  0  0  0  0  0  0
    0.5042   -1.5706    0.5484 H   0  0  0  0  0  0  0  0  0  0  0  0
    0.6232    0.8033    1.3771 H   0  0  0  0  0  0  0  0  0  0  0  0
    0.4729    1.3859   -0.2775 H   0  0  0  0  0  0  0  0  0  0  0  0
   -1.6702    1.4383    1.0481 H   0  0  0  0  0  0  0  0  0  0  0  0
   -1.6280   -0.3143    1.1853 H   0  0  0  0  0  0  0  0  0  0  0  0
   -1.8277    1.2402   -1.4739 H   0  0  0  0  0  0  0  0  0  0  0  0
   -1.8672   -0.5262   -1.3235 H   0  0  0  0  0  0  0  0  0  0  0  0
   -3.1800    0.4472   -0.6452 H   0  0  0  0  0  0  0  0  0  0  0  0
  1  2  1  0  0  0  0
  1  6  1  0  0  0  0
  2  3  1  0  0  0  0
  2 10  1  0  0  0  0
  3  4  1  0  0  0  0
  3 11  1  0  0  0  0
  4 13  1  0  0  0  0
  4 14  1  0  0  0  0
  5 17  1  0  0  0  0
  5  4  1  0  0  0  0
  7  1  1  0  0  0  0
  8  1  1  0  0  0  0
  9  2  1  0  0  0  0
 12  3  1  0  0  0  0
 15  5  1  0  0  0  0
 16  5  1  0  0  0  0
M  END
>  <Charge>
0.0

>  <InChI>
1/C5H12/c1-3-5-4-2/h3-5H2,1-2H3

>  <Molecular Formula>
C_{5}H_{12}

>  <Name>
PENTANE

>  <SMILES>
CCCCC

>  <logK ((\xb1)-2-BUTANOL)>
1.94

>  <logK (1,4-DIOXANE)>
1.89

>  <logK (1,5-DIMETHYL-2-PYRROLIDINONE)>
1.647

>  <logK (1-CHLOROBUTANE)>
2.356

>  <logK (1-ETHYL-2-PYRROLIDINONE)>
1.644

>  <logK (1-HEXADECENE)>
2.11

>  <logK (1-METHYL-2-PIPERIDINONE)>
1.58

>  <logK (1-OCTANOL)>
1.95

>  <logK (1-PROPANOL)>
1.81

>  <logK (2,2,4-TRIMETHYLPENTANE)>
2.371

>  <logK (4-FORMYLMORPHOLINE)>
1.11

>  <logK (4-METHYLPENTAN-2-ONE)>
2.099

>  <logK (5,8,11,14-TETRAOXAOCTADECANE)>
1.976

>  <logK (ACETIC ACID)>
1.509

>  <logK (ACETONE)>
1.98

>  <logK (ACETONITRILE)>
1.605

>  <logK (ACETOPHENONE)>
1.772

>  <logK (ANISOLE)>
2.0

>  <logK (BENZONITRILE)>
1.834

>  <logK (BENZYL ALCOHOL)>
1.55

>  <logK (BUTANONE)>
2.07

>  <logK (BUTYL ACETATE)>
2.154

>  <logK (BUTYROLACTONE)>
1.314

>  <logK (BUTYRONITRILE)>
1.921

>  <logK (CARBON DISULFIDE)>
2.387

>  <logK (CARBON TETRACHLORIDE)>
2.36

>  <logK (CHLOROBENZENE)>
2.43

>  <logK (CHLOROFORM)>
2.362

>  <logK (CYCLOHEXANONE)>
1.977

>  <logK (DECANE)>
2.29

>  <logK (DIBUTYL ETHER)>
2.33

>  <logK (DICHLOROETHANE)>
1.99

>  <logK (DICHLOROMETHANE)>
2.242

>  <logK (DIETHYLENE GLYCOL DIBUTYL ETHER)>
2.059

>  <logK (DIMETHYL SULFOXIDE)>
1.079

>  <logK (DIMETHYLFORMAMIDE)>
1.6

>  <logK (DODECANE)>
2.26

>  <logK (EPSILON-CAPROLACTONE)>
1.491

>  <logK (ETHANOL)>
1.78

>  <logK (ETHYL ACETATE)>
2.09

>  <logK (ETHYLBENZOATE)>
1.943

>  <logK (FORMAMIDE)>
0.32

>  <logK (HEPTAN-1-OL)>
1.95

>  <logK (HEPTANE)>
2.4

>  <logK (HEXADECANE)>
2.162

>  <logK (HEXANE)>
2.44

>  <logK (HEXANOL)>
1.967

>  <logK (ISOPROPANOL)>
1.85

>  <logK (M-XYLENE)>
2.279

>  <logK (METHANOL)>
1.66

>  <logK (METHYL ACETATE)>
1.967

>  <logK (N,N-DIBUTYLFORMAMID)>
1.9

>  <logK (N,N-DIETHYLACETAMIDE)>
1.82

>  <logK (N,N-DIMETHYLACETAMIDE)>
1.7

>  <logK (N-BUTANOL)>
1.98

>  <logK (N-ETHYLACETAMIDE)>
1.72

>  <logK (N-ETHYLFORMAMIDE)>
1.55

>  <logK (N-METHYLACETAMIDE)>
1.59

>  <logK (N-METHYLFORMAMIDE)>
1.32

>  <logK (N-METHYLPYRROLIDONE)>
1.59

>  <logK (NITROBENZENE)>
1.732

>  <logK (NITROMETHANE)>
1.33

>  <logK (NONANE)>
2.33

>  <logK (OCTANE)>
2.35

>  <logK (P-XYLENE)>
2.303

>  <logK (PENTANE)>
2.49

>  <logK (PENTANOL)>
1.94

>  <logK (PHENYLAMINE)>
1.324

>  <logK (PROPIONITRILE)>
1.82

>  <logK (PROPYLENE CARBONATE)>
1.22

>  <logK (PYRIDINE)>
1.92

>  <logK (SULFOLANE)>
1.02

>  <logK (TETRAETHYLENE GLYCOL DIMETHYL ETHER)>
1.602

>  <logK (TETRAHYDROFURAN)>
2.33

>  <logK (TOLUENE)>
2.305

>  <logK (TRIBUTYL PHOSPHATE)>
1.89

>  <logK (TRIETHYLAMINE)>
2.401

>  <mean polarizability>
9.94

>  <dipole moment>
0.0812295970088

>  <experimental polarizability source>
@Article{Bosque2002, Title = {Polarizabilities of Solvents from the Chemical Composition}, Author = {Bosque, Ramon and Sales, Joaquim}, Journal = {Journal of Chemical Information and Computer Sciences}, Year = {2002}, Note = {PMID: 12377003}, Number = {5}, Pages = {1154-1163}, Volume = {42}, Doi = {10.1021/ci025528x}, Url = {https://doi.org/10.1021/ci025528x}}

>  <Formula>
C5H12

$$$$
019
 OpenBabel08101817183D

 17 16  0  0  0  0  0  0  0  0999 V2000
    0.8794    1.2571    0.0987 C   0  0  0  0  0  0  0  0  0  0  0  0
    0.0000   -0.0000    0.0000 C   0  0  0  0  0  0  0  0  0  0  0  0
    0.7917   -1.1268   -0.6833 C   0  0  0  0  0  0  0  0  0  0  0  0
   -1.2567    0.3172   -0.8267 C   0  0  0  0  0  0  0  0  0  0  0  0
   -0.4145   -0.4475    1.4112 C   0  0  0  0  0  0  0  0  0  0  0  0
    1.1919    1.6011   -0.8979 H   0  0  0  0  0  0  0  0  0  0  0  0
    1.7879    1.0597    0.6861 H   0  0  0  0  0  0  0  0  0  0  0  0
    0.3381    2.0819    0.5844 H   0  0  0  0  0  0  0  0  0  0  0  0
    1.6983   -1.3760   -0.1129 H   0  0  0  0  0  0  0  0  0  0  0  0
    0.1865   -2.0410   -0.7680 H   0  0  0  0  0  0  0  0  0  0  0  0
    1.1023   -0.8344   -1.6968 H   0  0  0  0  0  0  0  0  0  0  0  0
   -1.8443    1.1217   -0.3611 H   0  0  0  0  0  0  0  0  0  0  0  0
   -0.9906    0.6409   -1.8434 H   0  0  0  0  0  0  0  0  0  0  0  0
   -1.9064   -0.5656   -0.9145 H   0  0  0  0  0  0  0  0  0  0  0  0
   -1.0459   -1.3470    1.3719 H   0  0  0  0  0  0  0  0  0  0  0  0
    0.4660   -0.6818    2.0270 H   0  0  0  0  0  0  0  0  0  0  0  0
   -0.9839    0.3404    1.9253 H   0  0  0  0  0  0  0  0  0  0  0  0
  1  8  1  0  0  0  0
  1  7  1  0  0  0  0
  2  1  1  0  0  0  0
  2  5  1  0  0  0  0
  3  9  1  0  0  0  0
  3  2  1  0  0  0  0
  4 12  1  0  0  0  0
  4  2  1  0  0  0  0
  5 17  1  0  0  0  0
  5 16  1  0  0  0  0
  6  1  1  0  0  0  0
 10  3  1  0  0  0  0
 11  3  1  0  0  0  0
 13  4  1  0  0  0  0
 14  4  1  0  0  0  0
 15  5  1  0  0  0  0
M  END
>  <Charge>
0.0

>  <InChI>
1/C5H12/c1-5(2,3)4/h1-4H3

>  <Molecular Formula>
C_{5}H_{12}

>  <Name>
NEOPENTANE

>  <SMILES>
CC(C)(C)C

>  <logK (1,4-DIOXANE)>
1.58

>  <logK (ACETONE)>
1.63

>  <logK (DODECANE)>
1.8

>  <logK (ETHANOL)>
1.61

>  <logK (HEXADECANE)>
1.82

>  <logK (HEXANE)>
2.03

>  <logK (METHANOL)>
1.4

>  <mean polarizability>
10.0

>  <dipole moment>
0.000248179689153

$$$$
020
 OpenBabel08101817183D

 20 19  0  0  0  0  0  0  0  0999 V2000
    2.4884    0.6026    1.2537 C   0  0  0  0  0  0  0  0  0  0  0  0
    1.3989   -0.2476    0.5994 C   0  0  0  0  0  0  0  0  0  0  0  0
    0.5836    0.5297   -0.4379 C   0  0  0  0  0  0  0  0  0  0  0  0
   -0.4560   -0.3069   -1.1966 C   0  0  0  0  0  0  0  0  0  0  0  0
   -1.5720   -0.9223   -0.3396 C   0  0  0  0  0  0  0  0  0  0  0  0
   -2.4560    0.1047    0.3706 C   0  0  0  0  0  0  0  0  0  0  0  0
    3.2010    0.9782    0.5050 H   0  0  0  0  0  0  0  0  0  0  0  0
    2.0563    1.4764    1.7629 H   0  0  0  0  0  0  0  0  0  0  0  0
    3.0577    0.0314    1.9992 H   0  0  0  0  0  0  0  0  0  0  0  0
    1.8557   -1.1266    0.1148 H   0  0  0  0  0  0  0  0  0  0  0  0
    0.7314   -0.6457    1.3798 H   0  0  0  0  0  0  0  0  0  0  0  0
    0.0925    1.3847    0.0557 H   0  0  0  0  0  0  0  0  0  0  0  0
    1.2777    0.9718   -1.1716 H   0  0  0  0  0  0  0  0  0  0  0  0
   -0.9174    0.3238   -1.9746 H   0  0  0  0  0  0  0  0  0  0  0  0
    0.0662   -1.1164   -1.7330 H   0  0  0  0  0  0  0  0  0  0  0  0
   -2.2012   -1.5495   -0.9901 H   0  0  0  0  0  0  0  0  0  0  0  0
   -1.1364   -1.6091    0.4030 H   0  0  0  0  0  0  0  0  0  0  0  0
   -1.8872    0.7081    1.0914 H   0  0  0  0  0  0  0  0  0  0  0  0
   -3.2684   -0.3852    0.9242 H   0  0  0  0  0  0  0  0  0  0  0  0
   -2.9148    0.7978   -0.3498 H   0  0  0  0  0  0  0  0  0  0  0  0
  1  8  1  0  0  0  0
  1  9  1  0  0  0  0
  2  1  1  0  0  0  0
  2 11  1  0  0  0  0
  3 12  1  0  0  0  0
  3  2  1  0  0  0  0
  4  3  1  0  0  0  0
  4  5  1  0  0  0  0
  5  6  1  0  0  0  0
  5 17  1  0  0  0  0
  6 19  1  0  0  0  0
  6 18  1  0  0  0  0
  7  1  1  0  0  0  0
 10  2  1  0  0  0  0
 13  3  1  0  0  0  0
 14  4  1  0  0  0  0
 15  4  1  0  0  0  0
 16  5  1  0  0  0  0
 20  6  1  0  0  0  0
M  END
>  <Charge>
0.0

>  <InChI>
1/C6H14/c1-3-5-6-4-2/h3-6H2,1-2H3

>  <Molecular Formula>
C_{6}H_{14}

>  <Name>
HEXANE

>  <SMILES>
CCCCCC

>  <logK ((\xb1)-1,2-PROPANEDIOL)>
1.306

>  <logK (1,4-DIOXANE)>
2.33

>  <logK (1,5-DIMETHYL-2-PYRROLIDINONE)>
2.064

>  <logK (1-CHLOROBUTANE)>
2.828

>  <logK (1-ETHYL-2-PYRROLIDINONE)>
2.102

>  <logK (1-HEXADECENE)>
2.628

>  <logK (1-METHYL-2-PIPERIDINONE)>
2.04

>  <logK (1-OCTANOL)>
2.44

>  <logK (1-PROPANOL)>
2.28

>  <logK (2,2,4-TRIMETHYLPENTANE)>
2.862

>  <logK (2-BUTOXYETHANOL)>
2.33

>  <logK (2-ETHOXYETHANOL)>
2.221

>  <logK (2-ISOPROPOXYETHANOL)>
2.32241127477

>  <logK (2-PROPOXYETHANOL)>
2.32287790754

>  <logK (3-METHYLBUTAN-1-OL)>
2.388

>  <logK (4-FORMYLMORPHOLINE)>
1.49

>  <logK (4-METHYLPENTAN-2-ONE)>
2.634

>  <logK (5,8,11,14-TETRAOXAOCTADECANE)>
2.471

>  <logK (ACETIC ACID)>
1.957

>  <logK (ACETONE)>
2.37

>  <logK (ACETONITRILE)>
1.92

>  <logK (ACETOPHENONE)>
2.235

>  <logK (ANISOLE)>
2.472

>  <logK (BENZONITRILE)>
2.27994871228

>  <logK (BENZYL ALCOHOL)>
1.965

>  <logK (BUTANONE)>
2.52

>  <logK (BUTYL ACETATE)>
2.63

>  <logK (BUTYROLACTONE)>
1.661

>  <logK (BUTYRONITRILE)>
2.334

>  <logK (CARBON DISULFIDE)>
2.932

>  <logK (CARBON TETRACHLORIDE)>
2.98

>  <logK (CHLOROBENZENE)>
2.95

>  <logK (CHLOROFORM)>
2.87

>  <logK (CYCLOHEXANONE)>
2.439

>  <logK (DECANE)>
2.79

>  <logK (DIBUTYL ETHER)>
2.82

>  <logK (DICHLOROETHANE)>
2.51

>  <logK (DICHLOROMETHANE)>
2.745

>  <logK (DIETHYLENE GLYCOL DIBUTYL ETHER)>
2.554

>  <logK (DIIODOMETHANE)>
1.51

>  <logK (DIMETHYL SULFOXIDE)>
1.4

>  <logK (DIMETHYLFORMAMIDE)>
1.97

>  <logK (DODECANE)>
2.73

>  <logK (EPSILON-CAPROLACTONE)>
1.918

>  <logK (ETHANOL)>
2.24

>  <logK (ETHYL ACETATE)>
2.54

>  <logK (ETHYLBENZENE)>
2.787

>  <logK (ETHYLBENZOATE)>
2.427

>  <logK (ETHYLENE GLYCOL)>
0.56

>  <logK (FORMAMIDE)>
0.39

>  <logK (HEPTAN-1-OL)>
2.44

>  <logK (HEPTANE)>
2.9

>  <logK (HEXADECANE)>
2.668

>  <logK (HEXANE)>
2.97

>  <logK (HEXANOL)>
2.485

>  <logK (ISOBUTANOL)>
2.46

>  <logK (ISOPROPANOL)>
2.3

>  <logK (M-XYLENE)>
2.821

>  <logK (METHANOL)>
2.05

>  <logK (METHOXYETHANOL)>
1.985

>  <logK (METHYL ACETATE)>
2.419

>  <logK (METHYL TERT-BUTYL ETHER)>
2.94

>  <logK (N,N-DIBUTYLFORMAMID)>
2.38

>  <logK (N,N-DIETHYLACETAMIDE)>
2.28

>  <logK (N,N-DIMETHYLACETAMIDE)>
2.1

>  <logK (N-BUTANOL)>
2.44

>  <logK (N-ETHYLACETAMIDE)>
2.14

>  <logK (N-ETHYLFORMAMIDE)>
1.97

>  <logK (N-METHYLACETAMIDE)>
2.01

>  <logK (N-METHYLFORMAMIDE)>
1.71

>  <logK (N-METHYLPYRROLIDONE)>
1.99

>  <logK (NITROBENZENE)>
2.166

>  <logK (NITROMETHANE)>
1.656

>  <logK (NONANE)>
2.83

>  <logK (OCTANE)>
2.86

>  <logK (P-XYLENE)>
2.818

>  <logK (PENTANE)>
2.97

>  <logK (PENTANOL)>
2.44

>  <logK (PHENYLAMINE)>
1.706

>  <logK (PROPIONITRILE)>
2.2

>  <logK (PROPYLENE CARBONATE)>
1.53

>  <logK (PYRIDINE)>
2.368

>  <logK (SULFOLANE)>
1.414

>  <logK (TERT-AMYL METHYL ETHER)>
2.871

>  <logK (TERT-BUTANOL)>
2.44

>  <logK (TETRAETHYLENE GLYCOL DIMETHYL ETHER)>
2.063

>  <logK (TETRAHYDROFURAN)>
2.84

>  <logK (TETRAHYDROPYRAN)>
2.6

>  <logK (TOLUENE)>
2.821

>  <logK (TRIBUTYL PHOSPHATE)>
2.37

>  <logK (TRIETHYLAMINE)>
2.913

>  <logK (UNDECANE)>
2.9

>  <mean polarizability>
11.74

>  <dipole moment>
0.119825651029

>  <Formula>
C6H14

$$$$
021
 OpenBabel08101817183D

 20 19  0  0  0  0  0  0  0  0999 V2000
    2.3447    0.7977    0.0985 C   0  0  0  0  0  0  0  0  0  0  0  0
    1.5649   -0.2874   -0.6492 C   0  0  0  0  0  0  0  0  0  0  0  0
    0.3508   -0.8567    0.1147 C   0  0  0  0  0  0  0  0  0  0  0  0
   -1.0206   -0.2720   -0.2700 C   0  0  0  0  0  0  0  0  0  0  0  0
   -1.1240    1.2377   -0.0311 C   0  0  0  0  0  0  0  0  0  0  0  0
   -2.1427   -1.0113    0.4664 C   0  0  0  0  0  0  0  0  0  0  0  0
    3.1884    1.1673   -0.5012 H   0  0  0  0  0  0  0  0  0  0  0  0
    1.7137    1.6599    0.3522 H   0  0  0  0  0  0  0  0  0  0  0  0
    2.7552    0.4036    1.0397 H   0  0  0  0  0  0  0  0  0  0  0  0
    2.2586   -1.1087   -0.8846 H   0  0  0  0  0  0  0  0  0  0  0  0
    1.2292    0.1023   -1.6246 H   0  0  0  0  0  0  0  0  0  0  0  0
    0.5038   -0.7233    1.2003 H   0  0  0  0  0  0  0  0  0  0  0  0
    0.3001   -1.9451   -0.0465 H   0  0  0  0  0  0  0  0  0  0  0  0
   -1.1542   -0.4493   -1.3527 H   0  0  0  0  0  0  0  0  0  0  0  0
   -0.3772    1.7993   -0.6075 H   0  0  0  0  0  0  0  0  0  0  0  0
   -0.9784    1.4769    1.0336 H   0  0  0  0  0  0  0  0  0  0  0  0
   -2.1154    1.6127   -0.3230 H   0  0  0  0  0  0  0  0  0  0  0  0
   -3.1326   -0.6481    0.1559 H   0  0  0  0  0  0  0  0  0  0  0  0
   -2.1043   -2.0932    0.2750 H   0  0  0  0  0  0  0  0  0  0  0  0
   -2.0601   -0.8620    1.5541 H   0  0  0  0  0  0  0  0  0  0  0  0
  1  8  1  0  0  0  0
  1  9  1  0  0  0  0
  2  1  1  0  0  0  0
  2  3  1  0  0  0  0
  3 12  1  0  0  0  0
  4  5  1  0  0  0  0
  4  3  1  0  0  0  0
  4  6  1  0  0  0  0
  5 16  1  0  0  0  0
  6 20  1  0  0  0  0
  7  1  1  0  0  0  0
 10  2  1  0  0  0  0
 11  2  1  0  0  0  0
 13  3  1  0  0  0  0
 14  4  1  0  0  0  0
 15  5  1  0  0  0  0
 17  5  1  0  0  0  0
 18  6  1  0  0  0  0
 19  6  1  0  0  0  0
M  END
>  <Charge>
0.0

>  <InChI>
1/C6H14/c1-4-5-6(2)3/h6H,4-5H2,1-3H3

>  <Molecular Formula>
C_{6}H_{14}

>  <Name>
ISOHEXANE

>  <SMILES>
CCCC(C)C

>  <logK (1,4-DIOXANE)>
2.19

>  <logK (1-HEXADECENE)>
2.436

>  <logK (1-METHYL-2-PIPERIDINONE)>
1.89

>  <logK (1-PROPANOL)>
2.15

>  <logK (2,2,4-TRIMETHYLPENTANE)>
2.719

>  <logK (ACETONE)>
2.24

>  <logK (ACETONITRILE)>
1.818

>  <logK (ACETOPHENONE)>
2.056

>  <logK (ANISOLE)>
2.317

>  <logK (BENZONITRILE)>
2.11966849084

>  <logK (BENZYL ALCOHOL)>
1.818

>  <logK (BUTANONE)>
2.39

>  <logK (BUTYL ACETATE)>
2.493

>  <logK (BUTYROLACTONE)>
1.551

>  <logK (BUTYRONITRILE)>
2.204

>  <logK (CARBON DISULFIDE)>
2.783

>  <logK (CARBON TETRACHLORIDE)>
2.806

>  <logK (CHLOROBENZENE)>
2.78

>  <logK (CHLOROFORM)>
2.71

>  <logK (CYCLOHEXANONE)>
2.303

>  <logK (DECANE)>
2.65

>  <logK (DICHLOROETHANE)>
2.34

>  <logK (DICHLOROMETHANE)>
2.589

>  <logK (DIMETHYL SULFOXIDE)>
1.31

>  <logK (DIMETHYLFORMAMIDE)>
1.84

>  <logK (DODECANE)>
2.57

>  <logK (ETHANOL)>
2.16

>  <logK (ETHYL ACETATE)>
2.4134371649

>  <logK (HEPTANE)>
2.76

>  <logK (HEXANE)>
2.82

>  <logK (ISOPROPANOL)>
2.16

>  <logK (METHANOL)>
1.955

>  <logK (METHYL ACETATE)>
2.299

>  <logK (METHYL TERT-BUTYL ETHER)>
2.76

>  <logK (N,N-DIMETHYLACETAMIDE)>
1.94

>  <logK (N-BUTANOL)>
2.29

>  <logK (N-METHYLFORMAMIDE)>
1.64

>  <logK (N-METHYLPYRROLIDONE)>
1.86

>  <logK (NITROBENZENE)>
2.013

>  <logK (NITROMETHANE)>
1.573

>  <logK (NONANE)>
2.69

>  <logK (OCTANE)>
2.72

>  <logK (P-XYLENE)>
2.651

>  <logK (PENTANE)>
2.89

>  <logK (PENTANOL)>
2.42

>  <logK (PROPIONITRILE)>
2.078

>  <logK (PROPYLENE CARBONATE)>
1.45

>  <logK (PYRIDINE)>
2.212

>  <logK (TETRAHYDROFURAN)>
2.7

>  <logK (TOLUENE)>
2.653

>  <logK (TRIETHYLAMINE)>
2.765

>  <mean polarizability>
11.79

>  <dipole moment>
0.185659614721

$$$$
022
 OpenBabel08101817183D

 23 22  0  0  0  0  0  0  0  0999 V2000
   -3.1327    0.5844   -0.1164 C   0  0  0  0  0  0  0  0  0  0  0  0
   -2.3840   -0.4650   -0.9405 C   0  0  0  0  0  0  0  0  0  0  0  0
   -1.1391   -1.0425   -0.2538 C   0  0  0  0  0  0  0  0  0  0  0  0
    0.0025   -0.0428   -0.0457 C   0  0  0  0  0  0  0  0  0  0  0  0
    1.2434   -0.6766    0.5903 C   0  0  0  0  0  0  0  0  0  0  0  0
    2.3941    0.2994    0.8696 C   0  0  0  0  0  0  0  0  0  0  0  0
    3.0433    0.8890   -0.3842 C   0  0  0  0  0  0  0  0  0  0  0  0
   -2.5166    1.4731    0.0765 H   0  0  0  0  0  0  0  0  0  0  0  0
   -4.0408    0.9222   -0.6344 H   0  0  0  0  0  0  0  0  0  0  0  0
   -3.4393    0.1757    0.8579 H   0  0  0  0  0  0  0  0  0  0  0  0
   -2.0916   -0.0308   -1.9111 H   0  0  0  0  0  0  0  0  0  0  0  0
   -3.0720   -1.2922   -1.1753 H   0  0  0  0  0  0  0  0  0  0  0  0
   -1.4298   -1.4707    0.7214 H   0  0  0  0  0  0  0  0  0  0  0  0
   -0.7626   -1.8874   -0.8539 H   0  0  0  0  0  0  0  0  0  0  0  0
   -0.3369    0.7898    0.5923 H   0  0  0  0  0  0  0  0  0  0  0  0
    0.2642    0.4042   -1.0190 H   0  0  0  0  0  0  0  0  0  0  0  0
    0.9475   -1.1568    1.5377 H   0  0  0  0  0  0  0  0  0  0  0  0
    1.6094   -1.4907   -0.0594 H   0  0  0  0  0  0  0  0  0  0  0  0
    2.0259    1.1165    1.5123 H   0  0  0  0  0  0  0  0  0  0  0  0
    3.1641   -0.2235    1.4583 H   0  0  0  0  0  0  0  0  0  0  0  0
    3.4230    0.0938   -1.0429 H   0  0  0  0  0  0  0  0  0  0  0  0
    3.8915    1.5372   -0.1247 H   0  0  0  0  0  0  0  0  0  0  0  0
    2.3365    1.4935   -0.9686 H   0  0  0  0  0  0  0  0  0  0  0  0
  1  8  1  0  0  0  0
  1 10  1  0  0  0  0
  2  3  1  0  0  0  0
  2  1  1  0  0  0  0
  3  4  1  0  0  0  0
  3 13  1  0  0  0  0
  4  5  1  0  0  0  0
  4 15  1  0  0  0  0
  5  6  1  0  0  0  0
  5 17  1  0  0  0  0
  6 20  1  0  0  0  0
  6 19  1  0  0  0  0
  7 22  1  0  0  0  0
  7  6  1  0  0  0  0
  9  1  1  0  0  0  0
 11  2  1  0  0  0  0
 12  2  1  0  0  0  0
 14  3  1  0  0  0  0
 16  4  1  0  0  0  0
 18  5  1  0  0  0  0
 21  7  1  0  0  0  0
 23  7  1  0  0  0  0
M  END
>  <Charge>
0.0

>  <InChI>
1/C7H16/c1-3-5-7-6-4-2/h3-7H2,1-2H3

>  <Molecular Formula>
C_{7}H_{16}

>  <Name>
HEPTANE

>  <SMILES>
CCCCCCC

>  <logK ((\xb1)-1,2-PROPANEDIOL)>
1.653

>  <logK (1,4-DIOXANE)>
2.79

>  <logK (1,5-DIMETHYL-2-PYRROLIDINONE)>
2.57

>  <logK (1-CHLOROBUTANE)>
3.378

>  <logK (1-ETHYL-2-PYRROLIDINONE)>
2.553

>  <logK (1-HEXADECENE)>
3.113

>  <logK (1-METHYL-2-PIPERIDINONE)>
2.5

>  <logK (1-OCTANOL)>
2.95

>  <logK (1-PROPANOL)>
2.74

>  <logK (2,2,4-TRIMETHYLPENTANE)>
3.361

>  <logK (2-BUTOXYETHANOL)>
2.83

>  <logK (2-ETHOXYETHANOL)>
2.637

>  <logK (2-ISOPROPOXYETHANOL)>
2.76617854949

>  <logK (2-PENTANOL)>
2.925

>  <logK (2-PROPOXYETHANOL)>
2.76060219835

>  <logK (3-METHYLBUTAN-1-OL)>
2.891

>  <logK (4-FORMYLMORPHOLINE)>
1.88

>  <logK (4-METHYLPENTAN-2-ONE)>
3.198

>  <logK (5,8,11,14-TETRAOXAOCTADECANE)>
2.954

>  <logK (ACETIC ACID)>
2.337

>  <logK (ACETONE)>
2.81

>  <logK (ACETONITRILE)>
2.289

>  <logK (ACETOPHENONE)>
2.706

>  <logK (ANISOLE)>
2.952

>  <logK (BENZONITRILE)>
2.74012161177

>  <logK (BENZYL ALCOHOL)>
2.37

>  <logK (BUTANONE)>
3.03

>  <logK (BUTYL ACETATE)>
3.1

>  <logK (BUTYROLACTONE)>
2.015

>  <logK (BUTYRONITRILE)>
2.776

>  <logK (CARBON DISULFIDE)>
3.477

>  <logK (CARBON TETRACHLORIDE)>
3.48

>  <logK (CHLOROBENZENE)>
3.47

>  <logK (CHLOROFORM)>
3.389

>  <logK (CYCLOHEXANONE)>
2.947

>  <logK (DECANE)>
3.3

>  <logK (DIBUTYL ETHER)>
3.38

>  <logK (DICHLOROETHANE)>
2.98

>  <logK (DICHLOROMETHANE)>
3.266

>  <logK (DIETHYLENE GLYCOL DIBUTYL ETHER)>
3.045

>  <logK (DIIODOMETHANE)>
2.09

>  <logK (DIISOPROPYL ETHER)>
3.386

>  <logK (DIMETHYL SULFOXIDE)>
1.722

>  <logK (DIMETHYLFORMAMIDE)>
2.35

>  <logK (DODECANE)>
3.24

>  <logK (EPSILON-CAPROLACTONE)>
2.345

>  <logK (ETHANOL)>
2.71

>  <logK (ETHYL ACETATE)>
2.98

>  <logK (ETHYLBENZENE)>
3.299

>  <logK (ETHYLBENZOATE)>
2.926

>  <logK (ETHYLENE GLYCOL)>
0.85

>  <logK (FORMAMIDE)>
0.66

>  <logK (HEPTANE)>
3.44

>  <logK (HEXADECANE)>
3.173

>  <logK (HEXANE)>
3.5

>  <logK (HEXANOL)>
2.934

>  <logK (ISOBUTANOL)>
2.87

>  <logK (ISOPROPANOL)>
2.74

>  <logK (METHANOL)>
2.5

>  <logK (METHOXYETHANOL)>
2.363

>  <logK (METHYL ACETATE)>
2.854

>  <logK (METHYL TERT-BUTYL ETHER)>
3.43

>  <logK (N,N-DIBUTYLFORMAMID)>
2.86

>  <logK (N,N-DIETHYLACETAMIDE)>
2.74

>  <logK (N,N-DIMETHYLACETAMIDE)>
2.55

>  <logK (N-BUTANOL)>
2.88

>  <logK (N-ETHYLACETAMIDE)>
2.57

>  <logK (N-ETHYLFORMAMIDE)>
2.38

>  <logK (N-METHYLACETAMIDE)>
2.45

>  <logK (N-METHYLFORMAMIDE)>
2.07

>  <logK (N-METHYLPYRROLIDONE)>
2.34

>  <logK (NITROBENZENE)>
2.621

>  <logK (NITROMETHANE)>
1.975

>  <logK (NONANE)>
3.34

>  <logK (OCTANE)>
3.37

>  <logK (P-XYLENE)>
3.336

>  <logK (PENTANE)>
3.49

>  <logK (PHENYLAMINE)>
2.183

>  <logK (PROPIONITRILE)>
2.617

>  <logK (PROPYLENE CARBONATE)>
1.88

>  <logK (PYRIDINE)>
2.829

>  <logK (SULFOLANE)>
1.817

>  <logK (TERT-BUTANOL)>
2.9

>  <logK (TETRAETHYLENE GLYCOL DIMETHYL ETHER)>
2.515

>  <logK (TETRAHYDROFURAN)>
3.34

>  <logK (TOLUENE)>
3.335

>  <logK (TRIBUTYL PHOSPHATE)>
2.85

>  <logK (TRIETHYLAMINE)>
3.43

>  <experimental polarizability source>
@Article{Bosque2002, Title = {Polarizabilities of Solvents from the Chemical Composition}, Author = {Bosque, Ramon and Sales, Joaquim}, Journal = {Journal of Chemical Information and Computer Sciences}, Year = {2002}, Note = {PMID: 12377003}, Number = {5}, Pages = {1154-1163}, Volume = {42}, Doi = {10.1021/ci025528x}, Url = {https://doi.org/10.1021/ci025528x}}

>  <Formula>
C7H16

>  <dipole moment>
0.055517720661

>  <mean polarizability>
13.7

$$$$
023
 OpenBabel08101817183D

 23 22  0  0  0  0  0  0  0  0999 V2000
   -2.1662   -1.3470   -0.6936 C   0  0  0  0  0  0  0  0  0  0  0  0
   -1.1809   -0.5633    0.1807 C   0  0  0  0  0  0  0  0  0  0  0  0
   -1.8846    0.6170    0.8591 C   0  0  0  0  0  0  0  0  0  0  0  0
    0.0295   -0.1215   -0.6598 C   0  0  0  0  0  0  0  0  0  0  0  0
    1.1696    0.6093    0.0701 C   0  0  0  0  0  0  0  0  0  0  0  0
    1.7939   -0.2420    1.1810 C   0  0  0  0  0  0  0  0  0  0  0  0
    2.2386    1.0476   -0.9372 C   0  0  0  0  0  0  0  0  0  0  0  0
   -1.6810   -2.2123   -1.1673 H   0  0  0  0  0  0  0  0  0  0  0  0
   -3.0179   -1.7172   -0.1057 H   0  0  0  0  0  0  0  0  0  0  0  0
   -2.5675   -0.7095   -1.4966 H   0  0  0  0  0  0  0  0  0  0  0  0
   -0.8231   -1.2460    0.9704 H   0  0  0  0  0  0  0  0  0  0  0  0
   -2.2320    1.3455    0.1101 H   0  0  0  0  0  0  0  0  0  0  0  0
   -1.2254    1.1474    1.5595 H   0  0  0  0  0  0  0  0  0  0  0  0
   -2.7638    0.2782    1.4253 H   0  0  0  0  0  0  0  0  0  0  0  0
   -0.3379    0.5285   -1.4742 H   0  0  0  0  0  0  0  0  0  0  0  0
    0.4555   -1.0125   -1.1551 H   0  0  0  0  0  0  0  0  0  0  0  0
    0.7558    1.5219    0.5323 H   0  0  0  0  0  0  0  0  0  0  0  0
    2.6261    0.2898    1.6635 H   0  0  0  0  0  0  0  0  0  0  0  0
    2.1933   -1.1831    0.7720 H   0  0  0  0  0  0  0  0  0  0  0  0
    1.0687   -0.5001    1.9644 H   0  0  0  0  0  0  0  0  0  0  0  0
    3.0423    1.6157   -0.4479 H   0  0  0  0  0  0  0  0  0  0  0  0
    2.6974    0.1732   -1.4242 H   0  0  0  0  0  0  0  0  0  0  0  0
    1.8095    1.6809   -1.7267 H   0  0  0  0  0  0  0  0  0  0  0  0
  1  9  1  0  0  0  0
  1  2  1  0  0  0  0
  2  3  1  0  0  0  0
  2 11  1  0  0  0  0
  3 14  1  0  0  0  0
  3 13  1  0  0  0  0
  4  5  1  0  0  0  0
  4  2  1  0  0  0  0
  5 17  1  0  0  0  0
  5  6  1  0  0  0  0
  6 18  1  0  0  0  0
  6 20  1  0  0  0  0
  7 21  1  0  0  0  0
  7  5  1  0  0  0  0
  8  1  1  0  0  0  0
 10  1  1  0  0  0  0
 12  3  1  0  0  0  0
 15  4  1  0  0  0  0
 16  4  1  0  0  0  0
 19  6  1  0  0  0  0
 22  7  1  0  0  0  0
 23  7  1  0  0  0  0
M  END
>  <Charge>
0.0

>  <InChI>
1/C7H16/c1-6(2)5-7(3)4/h6-7H,5H2,1-4H3

>  <Molecular Formula>
C_{7}H_{16}

>  <Name>
2,4-DIMETHYLPENTANE

>  <SMILES>
CC(C)CC(C)C

>  <logK (1,4-DIOXANE)>
2.45

>  <logK (1-HEXADECENE)>
2.73041049098

>  <logK (1-PROPANOL)>
2.43

>  <logK (2,2,4-TRIMETHYLPENTANE)>
3.034

>  <logK (ACETONE)>
2.52

>  <logK (ACETONITRILE)>
2.027

>  <logK (ACETOPHENONE)>
2.305

>  <logK (ANISOLE)>
2.596

>  <logK (BENZONITRILE)>
2.36730938282

>  <logK (BENZYL ALCOHOL)>
2.029

>  <logK (BUTANONE)>
2.68

>  <logK (BUTYL ACETATE)>
2.792

>  <logK (BUTYROLACTONE)>
1.733

>  <logK (BUTYRONITRILE)>
2.476

>  <logK (CARBON DISULFIDE)>
3.059

>  <logK (CARBON TETRACHLORIDE)>
3.127

>  <logK (CHLOROBENZENE)>
3.11

>  <logK (CHLOROFORM)>
3.042

>  <logK (CYCLOHEXANONE)>
2.596

>  <logK (DECANE)>
2.97

>  <logK (DICHLOROETHANE)>
2.63

>  <logK (DICHLOROMETHANE)>
2.92

>  <logK (DIMETHYL SULFOXIDE)>
1.441

>  <logK (DIMETHYLFORMAMIDE)>
2.06

>  <logK (DODECANE)>
2.89

>  <logK (ETHANOL)>
2.43

>  <logK (ETHYL ACETATE)>
2.70178197546

>  <logK (HEPTANE)>
3.086

>  <logK (HEXANE)>
3.21

>  <logK (ISOPROPANOL)>
2.518

>  <logK (METHANOL)>
2.188

>  <logK (METHYL ACETATE)>
2.574

>  <logK (N,N-DIMETHYLACETAMIDE)>
2.17

>  <logK (N-BUTANOL)>
2.562

>  <logK (N-METHYLFORMAMIDE)>
1.82

>  <logK (N-METHYLPYRROLIDONE)>
2.04

>  <logK (NITROBENZENE)>
2.264

>  <logK (NITROMETHANE)>
1.755

>  <logK (NONANE)>
3.0

>  <logK (OCTANE)>
3.03

>  <logK (P-XYLENE)>
2.962

>  <logK (PENTANE)>
3.16

>  <logK (PROPIONITRILE)>
2.327

>  <logK (PROPYLENE CARBONATE)>
1.62

>  <logK (PYRIDINE)>
2.472

>  <logK (TETRAHYDROFURAN)>
3.03

>  <logK (TOLUENE)>
2.964

>  <logK (TRIETHYLAMINE)>
3.095

>  <mean polarizability>
13.71

>  <dipole moment>
0.135020968131

$$$$
024
 OpenBabel08101817183D

 26 25  0  0  0  0  0  0  0  0999 V2000
   -3.8732    0.9867   -0.2954 C   0  0  0  0  0  0  0  0  0  0  0  0
   -2.9734   -0.2419   -0.4285 C   0  0  0  0  0  0  0  0  0  0  0  0
   -1.5084    0.0420   -0.0868 C   0  0  0  0  0  0  0  0  0  0  0  0
   -0.6041   -1.1877   -0.2099 C   0  0  0  0  0  0  0  0  0  0  0  0
    0.8564   -0.9585    0.2023 C   0  0  0  0  0  0  0  0  0  0  0  0
    1.6375   -0.0185   -0.7226 C   0  0  0  0  0  0  0  0  0  0  0  0
    3.1365    0.0793   -0.4078 C   0  0  0  0  0  0  0  0  0  0  0  0
    3.4603    0.7409    0.9333 C   0  0  0  0  0  0  0  0  0  0  0  0
   -3.5460    1.7944   -0.9660 H   0  0  0  0  0  0  0  0  0  0  0  0
   -4.9177    0.7534   -0.5420 H   0  0  0  0  0  0  0  0  0  0  0  0
   -3.8548    1.3837    0.7300 H   0  0  0  0  0  0  0  0  0  0  0  0
   -3.0370   -0.6359   -1.4561 H   0  0  0  0  0  0  0  0  0  0  0  0
   -3.3484   -1.0463    0.2256 H   0  0  0  0  0  0  0  0  0  0  0  0
   -1.4470    0.4338    0.9435 H   0  0  0  0  0  0  0  0  0  0  0  0
   -1.1398    0.8495   -0.7400 H   0  0  0  0  0  0  0  0  0  0  0  0
   -0.6329   -1.5586   -1.2493 H   0  0  0  0  0  0  0  0  0  0  0  0
   -1.0245   -1.9969    0.4098 H   0  0  0  0  0  0  0  0  0  0  0  0
    1.3739   -1.9322    0.2269 H   0  0  0  0  0  0  0  0  0  0  0  0
    0.8803   -0.5767    1.2362 H   0  0  0  0  0  0  0  0  0  0  0  0
    1.2001    0.9929   -0.6903 H   0  0  0  0  0  0  0  0  0  0  0  0
    1.5160   -0.3695   -1.7611 H   0  0  0  0  0  0  0  0  0  0  0  0
    3.6296    0.6449   -1.2138 H   0  0  0  0  0  0  0  0  0  0  0  0
    3.5769   -0.9315   -0.4351 H   0  0  0  0  0  0  0  0  0  0  0  0
    3.0302    1.7519    0.9885 H   0  0  0  0  0  0  0  0  0  0  0  0
    3.0645    0.1665    1.7816 H   0  0  0  0  0  0  0  0  0  0  0  0
    4.5450    0.8343    1.0789 H   0  0  0  0  0  0  0  0  0  0  0  0
  1 11  1  0  0  0  0
  2  1  1  0  0  0  0
  2  3  1  0  0  0  0
  2 13  1  0  0  0  0
  3 14  1  0  0  0  0
  4  3  1  0  0  0  0
  4  5  1  0  0  0  0
  4 17  1  0  0  0  0
  5 18  1  0  0  0  0
  5 19  1  0  0  0  0
  6 20  1  0  0  0  0
  6  7  1  0  0  0  0
  6  5  1  0  0  0  0
  7  8  1  0  0  0  0
  8 24  1  0  0  0  0
  8 26  1  0  0  0  0
  8 25  1  0  0  0  0
  9  1  1  0  0  0  0
 10  1  1  0  0  0  0
 12  2  1  0  0  0  0
 15  3  1  0  0  0  0
 16  4  1  0  0  0  0
 21  6  1  0  0  0  0
 22  7  1  0  0  0  0
 23  7  1  0  0  0  0
M  END
>  <Charge>
0.0

>  <InChI>
1/C8H18/c1-3-5-7-8-6-4-2/h3-8H2,1-2H3

>  <Molecular Formula>
C_{8}H_{18}

>  <Name>
OCTANE

>  <SMILES>
CCCCCCCC

>  <logK ((\xb1)-1,2-PROPANEDIOL)>
1.996

>  <logK (1,4-DIOXANE)>
3.24

>  <logK (1,5-DIMETHYL-2-PYRROLIDINONE)>
3.007

>  <logK (1-ETHYL-2-PYRROLIDINONE)>
2.989

>  <logK (1-METHYL-2-PIPERIDINONE)>
2.95

>  <logK (1-OCTANOL)>
3.3

>  <logK (1-PROPANOL)>
3.17

>  <logK (2,2,4-TRIMETHYLPENTANE)>
3.857

>  <logK (2-BUTOXYETHANOL)>
3.27

>  <logK (2-ETHOXYETHANOL)>
3.049

>  <logK (2-ISOPROPOXYETHANOL)>
3.22734187901

>  <logK (2-PICOLINE)>
3.535

>  <logK (3-METHYLBUTAN-1-OL)>
3.4

>  <logK (4-FORMYLMORPHOLINE)>
2.27

>  <logK (ACETIC ACID)>
2.939

>  <logK (ACETONE)>
3.23

>  <logK (ACETONITRILE)>
2.648

>  <logK (ACETOPHENONE)>
3.122

>  <logK (ANISOLE)>
3.43

>  <logK (BENZONITRILE)>
3.19388747823

>  <logK (BENZYL ALCOHOL)>
2.785

>  <logK (BROMOBENZENE)>
3.74

>  <logK (BROMOETHANE)>
3.902

>  <logK (BUTANONE)>
3.45

>  <logK (BUTYL ACETATE)>
3.558

>  <logK (BUTYROLACTONE)>
2.36

>  <logK (BUTYRONITRILE)>
3.212

>  <logK (CARBON DISULFIDE)>
4.007

>  <logK (CARBON TETRACHLORIDE)>
4.05

>  <logK (CHLOROBENZENE)>
3.99

>  <logK (CHLOROFORM)>
3.9

>  <logK (CYCLOHEXANONE)>
3.419

>  <logK (DECAN-1-OL)>
3.324

>  <logK (DECANE)>
3.78

>  <logK (DIBENZYL ETHER)>
3.159

>  <logK (DIBUTYL ETHER)>
3.85

>  <logK (DICHLOROETHANE)>
3.44

>  <logK (DICHLOROMETHANE)>
3.718

>  <logK (DIETHYL ETHER)>
3.92

>  <logK (DIETHYLDIGLYCOL)>
3.42

>  <logK (DIIODOMETHANE)>
2.47

>  <logK (DIISOPROPYL ETHER)>
3.843

>  <logK (DIMETHYL SULFOXIDE)>
2.036

>  <logK (DIMETHYLFORMAMIDE)>
2.74

>  <logK (DODECANE)>
3.75

>  <logK (EPSILON-CAPROLACTONE)>
2.759

>  <logK (ETHANOL)>
3.17

>  <logK (ETHYL ACETATE)>
3.45

>  <logK (ETHYL PHENYL ETHER)>
3.511

>  <logK (ETHYLBENZENE)>
3.64

>  <logK (ETHYLBENZOATE)>
3.401

>  <logK (ETHYLENE GLYCOL)>
1.14

>  <logK (FLUOROBENZENE)>
3.78

>  <logK (FORMAMIDE)>
0.93

>  <logK (HEPTANE)>
3.92

>  <logK (HEXADECANE)>
3.677

>  <logK (HEXANE)>
3.97

>  <logK (IODOBENZENE)>
3.49

>  <logK (ISOPROPANOL)>
3.17

>  <logK (M-CRESOL)>
3.032

>  <logK (METHANOL)>
2.82

>  <logK (METHOXYETHANOL)>
2.781

>  <logK (METHYL ACETATE)>
3.292

>  <logK (N,N-DIETHYLACETAMIDE)>
3.19

>  <logK (N,N-DIMETHYLACETAMIDE)>
2.89

>  <logK (N-BUTANOL)>
3.26

>  <logK (N-ETHYLACETAMIDE)>
3.0

>  <logK (N-ETHYLFORMAMIDE)>
2.78

>  <logK (N-METHYLFORMAMIDE)>
2.43

>  <logK (N-METHYLPYRROLIDONE)>
2.77

>  <logK (NITROBENZENE)>
3.074

>  <logK (NITROETHANE)>
2.948

>  <logK (NITROMETHANE)>
2.293

>  <logK (NONANE)>
3.82

>  <logK (OCTANE)>
3.91

>  <logK (P-XYLENE)>
3.839

>  <logK (PENTANE)>
3.97

>  <logK (PENTANOL)>
3.39

>  <logK (PERFLUOROBENZENE)>
3.544

>  <logK (PHENYLAMINE)>
2.585

>  <logK (PROPIONITRILE)>
3.025

>  <logK (PROPYLENE CARBONATE)>
2.26

>  <logK (PYRIDINE)>
3.283

>  <logK (SULFOLANE)>
2.0

>  <logK (TERT-AMYL METHYL ETHER)>
3.872

>  <logK (TERT-BUTANOL)>
3.39

>  <logK (TETRAETHYLENE GLYCOL DIMETHYL ETHER)>
2.877

>  <logK (TETRAHYDROFURAN)>
3.85

>  <logK (TOLUENE)>
3.853

>  <logK (TRIBUTYL PHOSPHATE)>
3.29

>  <logK (TRIETHYLAMINE)>
3.941

>  <experimental polarizability source>
@Article{Bosque2002, Title = {Polarizabilities of Solvents from the Chemical Composition}, Author = {Bosque, Ramon and Sales, Joaquim}, Journal = {Journal of Chemical Information and Computer Sciences}, Year = {2002}, Note = {PMID: 12377003}, Number = {5}, Pages = {1154-1163}, Volume = {42}, Doi = {10.1021/ci025528x}, Url = {https://doi.org/10.1021/ci025528x}}

>  <Formula>
C8H18

>  <mean polarizability>
15.66

>  <dipole moment>
0.106515624993

$$$$
025
 OpenBabel08101817183D

 26 25  0  0  0  0  0  0  0  0999 V2000
   -2.0805   -0.9891   -0.9658 C   0  0  0  0  0  0  0  0  0  0  0  0
   -1.0256   -0.5185    0.0450 C   0  0  0  0  0  0  0  0  0  0  0  0
   -1.7156    0.2022    1.2123 C   0  0  0  0  0  0  0  0  0  0  0  0
    0.0891    0.3064   -0.6682 C   0  0  0  0  0  0  0  0  0  0  0  0
   -0.2492    1.7967   -0.7941 C   0  0  0  0  0  0  0  0  0  0  0  0
    1.5211    0.0926   -0.1009 C   0  0  0  0  0  0  0  0  0  0  0  0
    1.6755    0.3828    1.3971 C   0  0  0  0  0  0  0  0  0  0  0  0
    2.0559   -1.3066   -0.4292 C   0  0  0  0  0  0  0  0  0  0  0  0
   -2.8684   -1.5777   -0.4744 H   0  0  0  0  0  0  0  0  0  0  0  0
   -1.6319   -1.6142   -1.7507 H   0  0  0  0  0  0  0  0  0  0  0  0
   -2.5680   -0.1334   -1.4576 H   0  0  0  0  0  0  0  0  0  0  0  0
   -0.5493   -1.4247    0.4559 H   0  0  0  0  0  0  0  0  0  0  0  0
   -1.0065    0.5699    1.9640 H   0  0  0  0  0  0  0  0  0  0  0  0
   -2.4112   -0.4821    1.7191 H   0  0  0  0  0  0  0  0  0  0  0  0
   -2.3044    1.0615    0.8604 H   0  0  0  0  0  0  0  0  0  0  0  0
    0.1380   -0.0877   -1.6989 H   0  0  0  0  0  0  0  0  0  0  0  0
    0.4797    2.3005   -1.4446 H   0  0  0  0  0  0  0  0  0  0  0  0
   -1.2439    1.9526   -1.2349 H   0  0  0  0  0  0  0  0  0  0  0  0
   -0.2366    2.3108    0.1769 H   0  0  0  0  0  0  0  0  0  0  0  0
    2.1609    0.8154   -0.6386 H   0  0  0  0  0  0  0  0  0  0  0  0
    1.1275   -0.3501    2.0069 H   0  0  0  0  0  0  0  0  0  0  0  0
    1.3183    1.3856    1.6680 H   0  0  0  0  0  0  0  0  0  0  0  0
    2.7333    0.3206    1.6895 H   0  0  0  0  0  0  0  0  0  0  0  0
    3.0961   -1.4198   -0.0928 H   0  0  0  0  0  0  0  0  0  0  0  0
    1.4673   -2.0927    0.0667 H   0  0  0  0  0  0  0  0  0  0  0  0
    2.0284   -1.5009   -1.5110 H   0  0  0  0  0  0  0  0  0  0  0  0
  1  9  1  0  0  0  0
  1  2  1  0  0  0  0
  2 12  1  0  0  0  0
  2  3  1  0  0  0  0
  3 14  1  0  0  0  0
  3 13  1  0  0  0  0
  4  6  1  0  0  0  0
  4  2  1  0  0  0  0
  5  4  1  0  0  0  0
  5 19  1  0  0  0  0
  6  7  1  0  0  0  0
  7 22  1  0  0  0  0
  7 23  1  0  0  0  0
  7 21  1  0  0  0  0
  8  6  1  0  0  0  0
  8 24  1  0  0  0  0
  8 25  1  0  0  0  0
 10  1  1  0  0  0  0
 11  1  1  0  0  0  0
 15  3  1  0  0  0  0
 16  4  1  0  0  0  0
 17  5  1  0  0  0  0
 18  5  1  0  0  0  0
 20  6  1  0  0  0  0
 26  8  1  0  0  0  0
M  END
>  <Charge>
0.0

>  <InChI>
1/C8H18/c1-6(2)8(5)7(3)4/h6-8H,1-5H3

>  <Molecular Formula>
C_{8}H_{18}

>  <Name>
2,3,4-TRIMETHYLPENTANE

>  <SMILES>
CC(C)C(C)C(C)C

>  <logK (1,4-DIOXANE)>
3.02

>  <logK (1-PROPANOL)>
2.95

>  <logK (2,2,4-TRIMETHYLPENTANE)>
3.582

>  <logK (ACETONE)>
3.03

>  <logK (ACETONITRILE)>
2.51

>  <logK (ACETOPHENONE)>
2.874

>  <logK (ANISOLE)>
3.169

>  <logK (BENZONITRILE)>
2.92611096996

>  <logK (BENZYL ALCOHOL)>
2.596

>  <logK (BUTANONE)>
3.22

>  <logK (BUTYL ACETATE)>
3.34

>  <logK (BUTYROLACTONE)>
2.229

>  <logK (BUTYRONITRILE)>
3.007

>  <logK (CARBON DISULFIDE)>
3.664

>  <logK (CARBON TETRACHLORIDE)>
3.717

>  <logK (CHLOROBENZENE)>
3.69

>  <logK (CHLOROFORM)>
3.631

>  <logK (CYCLOHEXANONE)>
3.152

>  <logK (DECANE)>
3.53

>  <logK (DICHLOROETHANE)>
3.19

>  <logK (DICHLOROMETHANE)>
3.473

>  <logK (DIMETHYL SULFOXIDE)>
1.908

>  <logK (DIMETHYLFORMAMIDE)>
2.58

>  <logK (DODECANE)>
3.47

>  <logK (ETHANOL)>
2.944

>  <logK (ETHYL ACETATE)>
3.23356648798

>  <logK (ETHYLENE GLYCOL)>
0.77

>  <logK (HEPTANE)>
3.64

>  <logK (HEXANE)>
3.68

>  <logK (ISOPROPANOL)>
2.95

>  <logK (METHANOL)>
2.658

>  <logK (METHYL ACETATE)>
3.096

>  <logK (N,N-DIMETHYLACETAMIDE)>
2.7

>  <logK (N-BUTANOL)>
3.101

>  <logK (N-METHYLFORMAMIDE)>
2.36

>  <logK (N-METHYLPYRROLIDONE)>
2.63

>  <logK (NITROBENZENE)>
2.826

>  <logK (NITROMETHANE)>
2.207

>  <logK (NONANE)>
3.57

>  <logK (OCTANE)>
3.6

>  <logK (P-XYLENE)>
3.541

>  <logK (PENTANE)>
3.69

>  <logK (PROPIONITRILE)>
2.83

>  <logK (PROPYLENE CARBONATE)>
2.1

>  <logK (PYRIDINE)>
3.035

>  <logK (TETRAHYDROFURAN)>
3.59

>  <logK (TOLUENE)>
3.54

>  <logK (TRIETHYLAMINE)>
3.657

>  <dipole moment>
0.17196740551

>  <mean polarizability>
15.31

$$$$
026
 OpenBabel08101817183D

 29 28  0  0  0  0  0  0  0  0999 V2000
    4.2870    0.3952   -0.7879 C   0  0  0  0  0  0  0  0  0  0  0  0
    3.7988    0.2920    0.6586 C   0  0  0  0  0  0  0  0  0  0  0  0
    2.3098    0.6100    0.8503 C   0  0  0  0  0  0  0  0  0  0  0  0
    1.3505   -0.3972    0.2095 C   0  0  0  0  0  0  0  0  0  0  0  0
   -0.1243   -0.0904    0.4831 C   0  0  0  0  0  0  0  0  0  0  0  0
   -1.0828   -1.1117   -0.1372 C   0  0  0  0  0  0  0  0  0  0  0  0
   -2.5658   -0.8837    0.1842 C   0  0  0  0  0  0  0  0  0  0  0  0
   -3.1745    0.3773   -0.4371 C   0  0  0  0  0  0  0  0  0  0  0  0
   -4.6693    0.5214   -0.1495 C   0  0  0  0  0  0  0  0  0  0  0  0
    3.7876   -0.3309   -1.4436 H   0  0  0  0  0  0  0  0  0  0  0  0
    5.3675    0.2093   -0.8569 H   0  0  0  0  0  0  0  0  0  0  0  0
    4.0960    1.3983   -1.1975 H   0  0  0  0  0  0  0  0  0  0  0  0
    4.0037   -0.7204    1.0450 H   0  0  0  0  0  0  0  0  0  0  0  0
    4.3893    0.9790    1.2849 H   0  0  0  0  0  0  0  0  0  0  0  0
    2.0943    0.6631    1.9304 H   0  0  0  0  0  0  0  0  0  0  0  0
    2.1012    1.6176    0.4503 H   0  0  0  0  0  0  0  0  0  0  0  0
    1.5864   -1.4083    0.5851 H   0  0  0  0  0  0  0  0  0  0  0  0
    1.5132   -0.4328   -0.8801 H   0  0  0  0  0  0  0  0  0  0  0  0
   -0.3554    0.9204    0.1094 H   0  0  0  0  0  0  0  0  0  0  0  0
   -0.2912   -0.0564    1.5739 H   0  0  0  0  0  0  0  0  0  0  0  0
   -0.9469   -1.1209   -1.2326 H   0  0  0  0  0  0  0  0  0  0  0  0
   -0.7957   -2.1180    0.2101 H   0  0  0  0  0  0  0  0  0  0  0  0
   -3.1429   -1.7574   -0.1617 H   0  0  0  0  0  0  0  0  0  0  0  0
   -2.6995   -0.8492    1.2796 H   0  0  0  0  0  0  0  0  0  0  0  0
   -3.0098    0.3544   -1.5273 H   0  0  0  0  0  0  0  0  0  0  0  0
   -2.6461    1.2701   -0.0684 H   0  0  0  0  0  0  0  0  0  0  0  0
   -4.8628    0.5787    0.9316 H   0  0  0  0  0  0  0  0  0  0  0  0
   -5.0845    1.4285   -0.6096 H   0  0  0  0  0  0  0  0  0  0  0  0
   -5.2337   -0.3383   -0.5394 H   0  0  0  0  0  0  0  0  0  0  0  0
  1  2  1  0  0  0  0
  2  3  1  0  0  0  0
  2 13  1  0  0  0  0
  2 14  1  0  0  0  0
  3 15  1  0  0  0  0
  4  5  1  0  0  0  0
  4 17  1  0  0  0  0
  4  3  1  0  0  0  0
  5 20  1  0  0  0  0
  6  7  1  0  0  0  0
  6 22  1  0  0  0  0
  6  5  1  0  0  0  0
  7 24  1  0  0  0  0
  8  9  1  0  0  0  0
  8 26  1  0  0  0  0
  8  7  1  0  0  0  0
  9 27  1  0  0  0  0
 10  1  1  0  0  0  0
 11  1  1  0  0  0  0
 12  1  1  0  0  0  0
 16  3  1  0  0  0  0
 18  4  1  0  0  0  0
 19  5  1  0  0  0  0
 21  6  1  0  0  0  0
 23  7  1  0  0  0  0
 25  8  1  0  0  0  0
 28  9  1  0  0  0  0
 29  9  1  0  0  0  0
M  END
>  <Charge>
0.0

>  <InChI>
1/C9H20/c1-3-5-7-9-8-6-4-2/h3-9H2,1-2H3

>  <Molecular Formula>
C_{9}H_{20}

>  <Name>
NONANE

>  <SMILES>
CCCCCCCCC

>  <logK ((\xb1)-1,2-PROPANEDIOL)>
2.336

>  <logK (1,4-DIOXANE)>
3.69

>  <logK (1-PROPANOL)>
3.55

>  <logK (2,2,4-TRIMETHYLPENTANE)>
4.355

>  <logK (2-BUTOXYETHANOL)>
3.71

>  <logK (2-ETHOXYETHANOL)>
3.468

>  <logK (2-ISOPROPOXYETHANOL)>
3.61821861448

>  <logK (2-PROPOXYETHANOL)>
3.62574812431

>  <logK (ACETONE)>
3.66

>  <logK (ACETONITRILE)>
3.02

>  <logK (ACETOPHENONE)>
3.579

>  <logK (ANISOLE)>
3.912

>  <logK (BENZONITRILE)>
3.64049451466

>  <logK (BENZYL ALCOHOL)>
3.199

>  <logK (BUTANONE)>
3.9

>  <logK (BUTYL ACETATE)>
4.024

>  <logK (BUTYROLACTONE)>
2.726

>  <logK (BUTYRONITRILE)>
3.65

>  <logK (CARBON DISULFIDE)>
4.56

>  <logK (CARBON TETRACHLORIDE)>
4.546

>  <logK (CHLOROBENZENE)>
4.52

>  <logK (CHLOROFORM)>
4.418

>  <logK (CYCLOHEXANONE)>
3.846

>  <logK (DECANE)>
4.35

>  <logK (DICHLOROETHANE)>
3.89

>  <logK (DICHLOROMETHANE)>
4.212

>  <logK (DIIODOMETHANE)>
2.92

>  <logK (DIMETHYL SULFOXIDE)>
2.363

>  <logK (DIMETHYLFORMAMIDE)>
3.14

>  <logK (DODECANE)>
4.25

>  <logK (ETHANOL)>
3.52

>  <logK (ETHYL ACETATE)>
3.90874380815

>  <logK (ETHYLENE GLYCOL)>
1.43

>  <logK (FORMAMIDE)>
1.22

>  <logK (HEPTANE)>
4.45

>  <logK (HEXANE)>
4.51

>  <logK (ISOPROPANOL)>
3.63

>  <logK (METHANOL)>
3.23

>  <logK (METHOXYETHANOL)>
3.111

>  <logK (METHYL ACETATE)>
3.721

>  <logK (N,N-DIMETHYLACETAMIDE)>
3.3

>  <logK (N-METHYLFORMAMIDE)>
2.8

>  <logK (N-METHYLPYRROLIDONE)>
3.14

>  <logK (NITROBENZENE)>
3.531

>  <logK (NITROMETHANE)>
2.626

>  <logK (NONANE)>
4.38

>  <logK (OCTANE)>
4.39

>  <logK (P-XYLENE)>
4.329

>  <logK (PENTANE)>
4.49

>  <logK (PROPIONITRILE)>
3.437

>  <logK (PROPYLENE CARBONATE)>
2.53

>  <logK (PYRIDINE)>
3.728

>  <logK (SULFOLANE)>
2.34

>  <logK (TETRAHYDROFURAN)>
4.34

>  <logK (TOLUENE)>
4.346

>  <logK (TRIETHYLAMINE)>
4.452

>  <Formula>
C9H20

>  <mean polarizability>
17.65

>  <dipole moment>
0.0804868859982

$$$$
027
 OpenBabel08101817183D

 29 28  0  0  0  0  0  0  0  0999 V2000
    2.7498   -0.0994    0.0494 C   0  0  0  0  0  0  0  0  0  0  0  0
    1.5091   -0.8417   -0.4613 C   0  0  0  0  0  0  0  0  0  0  0  0
    0.0910   -0.2296   -0.2287 C   0  0  0  0  0  0  0  0  0  0  0  0
    0.1723    1.2991   -0.4676 C   0  0  0  0  0  0  0  0  0  0  0  0
   -1.1270    2.1090   -0.4520 C   0  0  0  0  0  0  0  0  0  0  0  0
   -0.4551   -0.5696    1.1808 C   0  0  0  0  0  0  0  0  0  0  0  0
    0.3500   -0.1205    2.4037 C   0  0  0  0  0  0  0  0  0  0  0  0
   -0.8158   -0.9286   -1.2920 C   0  0  0  0  0  0  0  0  0  0  0  0
   -2.3341   -0.9712   -1.0826 C   0  0  0  0  0  0  0  0  0  0  0  0
    2.8736    0.8761   -0.4391 H   0  0  0  0  0  0  0  0  0  0  0  0
    2.7378    0.0723    1.1318 H   0  0  0  0  0  0  0  0  0  0  0  0
    3.6496   -0.6883   -0.1783 H   0  0  0  0  0  0  0  0  0  0  0  0
    1.6313   -0.9681   -1.5503 H   0  0  0  0  0  0  0  0  0  0  0  0
    1.5005   -1.8642   -0.0477 H   0  0  0  0  0  0  0  0  0  0  0  0
    0.8533    1.7312    0.2807 H   0  0  0  0  0  0  0  0  0  0  0  0
    0.6700    1.4572   -1.4396 H   0  0  0  0  0  0  0  0  0  0  0  0
   -0.9006    3.1822   -0.5200 H   0  0  0  0  0  0  0  0  0  0  0  0
   -1.7803    1.8638   -1.2986 H   0  0  0  0  0  0  0  0  0  0  0  0
   -1.7027    1.9576    0.4716 H   0  0  0  0  0  0  0  0  0  0  0  0
   -1.4692   -0.1518    1.2677 H   0  0  0  0  0  0  0  0  0  0  0  0
   -0.5859   -1.6640    1.2322 H   0  0  0  0  0  0  0  0  0  0  0  0
   -0.2241   -0.3117    3.3209 H   0  0  0  0  0  0  0  0  0  0  0  0
    0.5782    0.9539    2.3828 H   0  0  0  0  0  0  0  0  0  0  0  0
    1.2987   -0.6629    2.4991 H   0  0  0  0  0  0  0  0  0  0  0  0
   -0.5956   -0.4681   -2.2698 H   0  0  0  0  0  0  0  0  0  0  0  0
   -0.4701   -1.9727   -1.3767 H   0  0  0  0  0  0  0  0  0  0  0  0
   -2.7859    0.0220   -0.9800 H   0  0  0  0  0  0  0  0  0  0  0  0
   -2.8106   -1.4599   -1.9441 H   0  0  0  0  0  0  0  0  0  0  0  0
   -2.6083   -1.5525   -0.1927 H   0  0  0  0  0  0  0  0  0  0  0  0
  1 11  1  0  0  0  0
  2  3  1  0  0  0  0
  2 14  1  0  0  0  0
  2  1  1  0  0  0  0
  3  6  1  0  0  0  0
  4  5  1  0  0  0  0
  4  3  1  0  0  0  0
  4 15  1  0  0  0  0
  5 19  1  0  0  0  0
  6 21  1  0  0  0  0
  6 20  1  0  0  0  0
  6  7  1  0  0  0  0
  7 24  1  0  0  0  0
  7 22  1  0  0  0  0
  8  9  1  0  0  0  0
  8  3  1  0  0  0  0
  9 27  1  0  0  0  0
  9 29  1  0  0  0  0
 10  1  1  0  0  0  0
 12  1  1  0  0  0  0
 13  2  1  0  0  0  0
 16  4  1  0  0  0  0
 17  5  1  0  0  0  0
 18  5  1  0  0  0  0
 23  7  1  0  0  0  0
 25  8  1  0  0  0  0
 26  8  1  0  0  0  0
 28  9  1  0  0  0  0
M  END
>  <Charge>
0.0

>  <InChI>
1/C9H20/c1-5-9(6-2,7-3)8-4/h5-8H2,1-4H3

>  <Molecular Formula>
C_{9}H_{20}

>  <Name>
TETRAETHYLMETHANE

>  <SMILES>
CCC(CC)(CC)CC

>  <logK (HEXADECANE)>
3.82

>  <logK (HEXANE)>
4.31

>  <logK (METHANOL)>
3.15

>  <dipole moment>
0.0187314895984

>  <mean polarizability>
17.07

$$$$
028
 OpenBabel08101817183D

 15 15  0  0  0  0  0  0  0  0999 V2000
   -1.1718    0.5350   -0.0419 C   0  0  0  0  0  0  0  0  0  0  0  0
   -0.8493   -0.9643    0.0182 C   0  0  0  0  0  0  0  0  0  0  0  0
    0.5908   -1.0263   -0.5089 C   0  0  0  0  0  0  0  0  0  0  0  0
    1.2774    0.2119    0.1109 C   0  0  0  0  0  0  0  0  0  0  0  0
    0.1335    1.2238    0.4162 C   0  0  0  0  0  0  0  0  0  0  0  0
   -2.0391    0.8183    0.5695 H   0  0  0  0  0  0  0  0  0  0  0  0
   -1.4031    0.8149   -1.0816 H   0  0  0  0  0  0  0  0  0  0  0  0
   -0.8838   -1.3156    1.0625 H   0  0  0  0  0  0  0  0  0  0  0  0
   -1.5498   -1.5823   -0.5599 H   0  0  0  0  0  0  0  0  0  0  0  0
    0.5791   -0.9429   -1.6070 H   0  0  0  0  0  0  0  0  0  0  0  0
    1.1044   -1.9651   -0.2618 H   0  0  0  0  0  0  0  0  0  0  0  0
    1.7966   -0.0658    1.0388 H   0  0  0  0  0  0  0  0  0  0  0  0
    2.0375    0.6342   -0.5594 H   0  0  0  0  0  0  0  0  0  0  0  0
    0.2849    2.1868   -0.0889 H   0  0  0  0  0  0  0  0  0  0  0  0
    0.0926    1.4372    1.4934 H   0  0  0  0  0  0  0  0  0  0  0  0
  1  2  1  0  0  0  0
  1  5  1  0  0  0  0
  1  6  1  0  0  0  0
  2  8  1  0  0  0  0
  3 11  1  0  0  0  0
  3  2  1  0  0  0  0
  3  4  1  0  0  0  0
  4  5  1  0  0  0  0
  4 12  1  0  0  0  0
  5 15  1  0  0  0  0
  7  1  1  0  0  0  0
  9  2  1  0  0  0  0
 10  3  1  0  0  0  0
 13  4  1  0  0  0  0
 14  5  1  0  0  0  0
M  END
>  <Charge>
0.0

>  <InChI>
1/C5H10/c1-2-4-5-3-1/h1-5H2

>  <Molecular Formula>
C_{5}H_{10}

>  <Name>
CYCLOPENTANE

>  <SMILES>
C1CCCC1

>  <logK (1-METHYL-2-PIPERIDINONE)>
2.06

>  <logK (1-PROPANOL)>
2.12

>  <logK (4-FORMYLMORPHOLINE)>
1.63

>  <logK (ACETIC ACID)>
1.921

>  <logK (CARBON TETRACHLORIDE)>
2.759

>  <logK (DECANE)>
2.54

>  <logK (DIMETHYLFORMAMIDE)>
2.0

>  <logK (DODECANE)>
2.47

>  <logK (ETHANOL)>
2.04

>  <logK (ETHYLBENZOATE)>
2.319

>  <logK (HEPTAN-1-OL)>
2.27

>  <logK (HEPTANE)>
2.582

>  <logK (HEXADECANE)>
2.447

>  <logK (HEXANE)>
2.71

>  <logK (ISOPROPANOL)>
2.12

>  <logK (METHANOL)>
1.92

>  <logK (METHYL TERT-BUTYL ETHER)>
2.6

>  <logK (N-METHYLPYRROLIDONE)>
1.98

>  <logK (PHENYLAMINE)>
1.871

>  <mean polarizability>
9.05

>  <dipole moment>
0.0271421913167

$$$$
029
 OpenBabel08101817183D

 18 18  0  0  0  0  0  0  0  0999 V2000
    1.2376   -0.8076   -0.1112 C   0  0  0  0  0  0  0  0  0  0  0  0
    1.2284    0.6837   -0.4687 C   0  0  0  0  0  0  0  0  0  0  0  0
    0.1446    1.4427    0.3066 C   0  0  0  0  0  0  0  0  0  0  0  0
   -1.2376    0.8076    0.1112 C   0  0  0  0  0  0  0  0  0  0  0  0
   -1.2284   -0.6837    0.4687 C   0  0  0  0  0  0  0  0  0  0  0  0
   -0.1446   -1.4427   -0.3066 C   0  0  0  0  0  0  0  0  0  0  0  0
    1.9898   -1.3392   -0.7133 H   0  0  0  0  0  0  0  0  0  0  0  0
    1.5433   -0.9246    0.9427 H   0  0  0  0  0  0  0  0  0  0  0  0
    1.0431    0.7946   -1.5510 H   0  0  0  0  0  0  0  0  0  0  0  0
    2.2166    1.1279   -0.2761 H   0  0  0  0  0  0  0  0  0  0  0  0
    0.1254    2.4991   -0.0009 H   0  0  0  0  0  0  0  0  0  0  0  0
    0.3969    1.4358    1.3809 H   0  0  0  0  0  0  0  0  0  0  0  0
   -1.9898    1.3392    0.7133 H   0  0  0  0  0  0  0  0  0  0  0  0
   -1.5433    0.9246   -0.9427 H   0  0  0  0  0  0  0  0  0  0  0  0
   -1.0431   -0.7946    1.5510 H   0  0  0  0  0  0  0  0  0  0  0  0
   -2.2166   -1.1279    0.2761 H   0  0  0  0  0  0  0  0  0  0  0  0
   -0.1254   -2.4991    0.0009 H   0  0  0  0  0  0  0  0  0  0  0  0
   -0.3969   -1.4358   -1.3809 H   0  0  0  0  0  0  0  0  0  0  0  0
  1  8  1  0  0  0  0
  2 10  1  0  0  0  0
  2  1  1  0  0  0  0
  2  3  1  0  0  0  0
  3 12  1  0  0  0  0
  4  3  1  0  0  0  0
  4  5  1  0  0  0  0
  4 13  1  0  0  0  0
  5 15  1  0  0  0  0
  6  1  1  0  0  0  0
  6 17  1  0  0  0  0
  6  5  1  0  0  0  0
  7  1  1  0  0  0  0
  9  2  1  0  0  0  0
 11  3  1  0  0  0  0
 14  4  1  0  0  0  0
 16  5  1  0  0  0  0
 18  6  1  0  0  0  0
M  END
>  <Charge>
0.0

>  <InChI>
1/C6H12/c1-2-4-6-5-3-1/h1-6H2

>  <Molecular Formula>
C_{6}H_{12}

>  <Name>
CYCLOHEXANE

>  <SMILES>
C1CCCCC1

>  <logK ((\xb1)-1,2-PROPANEDIOL)>
1.796

>  <logK ((\xb1)-2-BUTANOL)>
2.67

>  <logK (1,4-DIOXANE)>
2.65

>  <logK (1,5-DIMETHYL-2-PYRROLIDINONE)>
2.497

>  <logK (1-CHLOROBUTANE)>
3.062

>  <logK (1-ETHOXYBUTANE)>
2.984

>  <logK (1-ETHYL-2-PYRROLIDINONE)>
2.48

>  <logK (1-HEXADECENE)>
2.847

>  <logK (1-METHOXYBUTANE)>
3.08

>  <logK (1-METHYL-2-PIPERIDINONE)>
2.47

>  <logK (1-OCTANOL)>
2.71

>  <logK (1-PROPANOL)>
2.55

>  <logK (2,2,4-TRIMETHYLPENTANE)>
3.032

>  <logK (2-BUTOXYETHANOL)>
2.69

>  <logK (2-ETHOXYETHANOL)>
2.559

>  <logK (2-ISOPROPOXYETHANOL)>
2.62432199445

>  <logK (2-PROPOXYETHANOL)>
2.63882072438

>  <logK (4-FORMYLMORPHOLINE)>
1.98

>  <logK (4-METHYLPENTAN-2-ONE)>
2.877

>  <logK (5,8,11,14-TETRAOXAOCTADECANE)>
2.771

>  <logK (ACETIC ACID)>
2.357

>  <logK (ACETONE)>
2.6

>  <logK (ACETONITRILE)>
2.208

>  <logK (ACETOPHENONE)>
2.548

>  <logK (ANISOLE)>
2.789

>  <logK (BENZONITRILE)>
2.58304172911

>  <logK (BENZYL ALCOHOL)>
2.362

>  <logK (BUTANONE)>
2.75

>  <logK (BUTYL ACETATE)>
2.865

>  <logK (BUTYROLACTONE)>
2.076

>  <logK (BUTYRONITRILE)>
2.599

>  <logK (CARBON DISULFIDE)>
3.285

>  <logK (CARBON TETRACHLORIDE)>
3.22

>  <logK (CHLOROBENZENE)>
3.23

>  <logK (CHLOROFORM)>
3.26

>  <logK (CYCLOHEXANONE)>
2.812

>  <logK (DECAN-1-OL)>
2.504

>  <logK (DECANE)>
2.99

>  <logK (DIBUTYL ETHER)>
3.01

>  <logK (DICHLOROETHANE)>
2.79

>  <logK (DICHLOROMETHANE)>
3.006

>  <logK (DIETHYL ETHER)>
3.07

>  <logK (DIETHYLENE GLYCOL DIBUTYL ETHER)>
2.839

>  <logK (DIISOPROPYL ETHER)>
3.051

>  <logK (DIMETHYL SULFOXIDE)>
1.877

>  <logK (DIMETHYLFORMAMIDE)>
2.31

>  <logK (DODECANE)>
2.95

>  <logK (EPSILON-CAPROLACTONE)>
2.327

>  <logK (ETHANOL)>
2.55

>  <logK (ETHYL ACETATE)>
2.76

>  <logK (ETHYLBENZENE)>
3.006

>  <logK (ETHYLBENZOATE)>
2.751

>  <logK (ETHYLENE GLYCOL)>
1.13

>  <logK (FORMAMIDE)>
0.99

>  <logK (HEPTAN-1-OL)>
2.73

>  <logK (HEPTANE)>
3.07

>  <logK (HEXADECANE)>
2.913

>  <logK (HEXANE)>
3.1

>  <logK (HEXANOL)>
2.75

>  <logK (ISOBUTANOL)>
2.83

>  <logK (ISOPROPANOL)>
2.53

>  <logK (METHANOL)>
2.43

>  <logK (METHOXYETHANOL)>
2.333

>  <logK (METHYL ACETATE)>
2.642

>  <logK (METHYL TERT-BUTYL ETHER)>
3.05

>  <logK (METHYLCYCLOHEXANE)>
3.17

>  <logK (N,N-DIBUTYLFORMAMID)>
2.69

>  <logK (N,N-DIETHYLACETAMIDE)>
2.6

>  <logK (N,N-DIMETHYLACETAMIDE)>
2.49

>  <logK (N-BUTANOL)>
2.73

>  <logK (N-ETHYLACETAMIDE)>
2.5

>  <logK (N-ETHYLFORMAMIDE)>
2.36

>  <logK (N-METHYLACETAMIDE)>
2.39

>  <logK (N-METHYLFORMAMIDE)>
2.13

>  <logK (N-METHYLPYRROLIDONE)>
2.38

>  <logK (NITROBENZENE)>
2.482

>  <logK (NITROMETHANE)>
1.984

>  <logK (NONANE)>
3.03

>  <logK (OCTANE)>
3.05

>  <logK (P-XYLENE)>
3.062

>  <logK (PENTANE)>
3.1

>  <logK (PENTANOL)>
2.72

>  <logK (PHENYLAMINE)>
2.209

>  <logK (PROPIONITRILE)>
2.471

>  <logK (PROPYL ETHER)>
3.021

>  <logK (PROPYLENE CARBONATE)>
1.95

>  <logK (PYRIDINE)>
2.723

>  <logK (SULFOLANE)>
1.805

>  <logK (TERT-AMYL METHYL ETHER)>
3.154

>  <logK (TERT-BUTANOL)>
2.69

>  <logK (TETRAETHYLENE GLYCOL DIMETHYL ETHER)>
2.427

>  <logK (TETRAHYDROFURAN)>
3.131

>  <logK (TOLUENE)>
3.056

>  <logK (TRIBUTYL PHOSPHATE)>
2.66

>  <logK (TRIETHYLAMINE)>
3.061

>  <mean polarizability>
10.88

>  <dipole moment>
1.42566392226e-13

$$$$
030
 OpenBabel08101817183D

 24 24  0  0  0  0  0  0  0  0999 V2000
    2.9488    0.1781   -0.3547 C   0  0  0  0  0  0  0  0  0  0  0  0
    1.7209   -0.7338   -0.3550 C   0  0  0  0  0  0  0  0  0  0  0  0
    0.5550   -0.2287    0.5095 C   0  0  0  0  0  0  0  0  0  0  0  0
    0.0314    1.1447    0.0256 C   0  0  0  0  0  0  0  0  0  0  0  0
   -1.4137    1.3834    0.4714 C   0  0  0  0  0  0  0  0  0  0  0  0
   -2.3722    0.3759   -0.1992 C   0  0  0  0  0  0  0  0  0  0  0  0
   -1.6784   -0.9752   -0.4783 C   0  0  0  0  0  0  0  0  0  0  0  0
   -0.6006   -1.2623    0.5707 C   0  0  0  0  0  0  0  0  0  0  0  0
    2.7255    1.1684   -0.7742 H   0  0  0  0  0  0  0  0  0  0  0  0
    3.7651   -0.2543   -0.9493 H   0  0  0  0  0  0  0  0  0  0  0  0
    3.3261    0.3282    0.6680 H   0  0  0  0  0  0  0  0  0  0  0  0
    2.0150   -1.7343    0.0016 H   0  0  0  0  0  0  0  0  0  0  0  0
    1.3639   -0.8717   -1.3907 H   0  0  0  0  0  0  0  0  0  0  0  0
    0.9416   -0.0978    1.5358 H   0  0  0  0  0  0  0  0  0  0  0  0
    0.0776    1.1857   -1.0770 H   0  0  0  0  0  0  0  0  0  0  0  0
    0.6860    1.9501    0.3866 H   0  0  0  0  0  0  0  0  0  0  0  0
   -1.7262    2.4131    0.2465 H   0  0  0  0  0  0  0  0  0  0  0  0
   -1.4676    1.2823    1.5675 H   0  0  0  0  0  0  0  0  0  0  0  0
   -3.2515    0.2202    0.4440 H   0  0  0  0  0  0  0  0  0  0  0  0
   -2.7521    0.7944   -1.1436 H   0  0  0  0  0  0  0  0  0  0  0  0
   -1.2136   -0.9591   -1.4770 H   0  0  0  0  0  0  0  0  0  0  0  0
   -2.4201   -1.7864   -0.5048 H   0  0  0  0  0  0  0  0  0  0  0  0
   -0.1950   -2.2777    0.4447 H   0  0  0  0  0  0  0  0  0  0  0  0
   -1.0658   -1.2430    1.5692 H   0  0  0  0  0  0  0  0  0  0  0  0
  1 11  1  0  0  0  0
  2  1  1  0  0  0  0
  2 12  1  0  0  0  0
  2  3  1  0  0  0  0
  3  8  1  0  0  0  0
  3 14  1  0  0  0  0
  4 16  1  0  0  0  0
  4  5  1  0  0  0  0
  4  3  1  0  0  0  0
  5 18  1  0  0  0  0
  6 19  1  0  0  0  0
  6  5  1  0  0  0  0
  7  6  1  0  0  0  0
  7  8  1  0  0  0  0
  8 24  1  0  0  0  0
  9  1  1  0  0  0  0
 10  1  1  0  0  0  0
 13  2  1  0  0  0  0
 15  4  1  0  0  0  0
 17  5  1  0  0  0  0
 20  6  1  0  0  0  0
 21  7  1  0  0  0  0
 22  7  1  0  0  0  0
 23  8  1  0  0  0  0
M  END
>  <Charge>
0.0

>  <InChI>
1/C8H16/c1-2-8-6-4-3-5-7-8/h8H,2-7H2,1H3

>  <Molecular Formula>
C_{8}H_{16}

>  <Name>
ETHYLCYCLOHEXANE

>  <SMILES>
CCC1CCCCC1

>  <logK ((\xb1)-1,2-PROPANEDIOL)>
2.333

>  <logK (1,4-DIOXANE)>
3.39

>  <logK (1-PROPANOL)>
3.28

>  <logK (2,2,4-TRIMETHYLPENTANE)>
3.864

>  <logK (4-FORMYLMORPHOLINE)>
2.58

>  <logK (ACETONE)>
3.32

>  <logK (ACETONITRILE)>
2.817

>  <logK (ACETOPHENONE)>
3.307

>  <logK (ANISOLE)>
3.586

>  <logK (BENZONITRILE)>
3.33789476175

>  <logK (BENZYL ALCOHOL)>
3.036

>  <logK (BUTANONE)>
3.53

>  <logK (BUTYL ACETATE)>
3.656

>  <logK (BUTYROLACTONE)>
2.656

>  <logK (BUTYRONITRILE)>
3.335

>  <logK (CARBON DISULFIDE)>
4.142

>  <logK (CARBON TETRACHLORIDE)>
4.084

>  <logK (CHLOROBENZENE)>
4.06

>  <logK (CHLOROFORM)>
3.985

>  <logK (CYCLOHEXANONE)>
3.548

>  <logK (DECANE)>
3.86

>  <logK (DICHLOROETHANE)>
3.57

>  <logK (DICHLOROMETHANE)>
3.823

>  <logK (DIMETHYL SULFOXIDE)>
2.388

>  <logK (DIMETHYLFORMAMIDE)>
2.97

>  <logK (DODECANE)>
3.81

>  <logK (ETHANOL)>
3.267

>  <logK (ETHYL ACETATE)>
3.54

>  <logK (ETHYLENE GLYCOL)>
1.52

>  <logK (FORMAMIDE)>
1.33

>  <logK (HEPTANE)>
3.94

>  <logK (HEXANE)>
3.97

>  <logK (ISOPROPANOL)>
3.27

>  <logK (METHANOL)>
2.961

>  <logK (METHYL ACETATE)>
3.389

>  <logK (METHYLCYCLOHEXANE)>
4.05

>  <logK (N,N-DIMETHYLACETAMIDE)>
3.08

>  <logK (N-BUTANOL)>
3.442

>  <logK (N-METHYLFORMAMIDE)>
2.73

>  <logK (N-METHYLPYRROLIDONE)>
3.07

>  <logK (NITROBENZENE)>
3.244

>  <logK (NITROMETHANE)>
2.533

>  <logK (NONANE)>
3.9

>  <logK (OCTANE)>
3.94

>  <logK (P-XYLENE)>
3.901

>  <logK (PENTANE)>
3.95

>  <logK (PHENYLAMINE)>
2.854

>  <logK (PROPIONITRILE)>
3.165

>  <logK (PROPYLENE CARBONATE)>
2.5

>  <logK (PYRIDINE)>
3.474

>  <logK (TETRAHYDROFURAN)>
3.92

>  <logK (TOLUENE)>
3.918

>  <logK (TRIBUTYL PHOSPHATE)>
3.45

>  <logK (TRIETHYLAMINE)>
3.983

>  <dipole moment>
0.0637951928696

>  <mean polarizability>
14.52

$$$$
031
 OpenBabel08101817183D

  6  5  0  0  0  0  0  0  0  0999 V2000
   -0.6645    0.0128   -0.0434 C   0  0  0  0  0  0  0  0  0  0  0  0
    0.6645   -0.0128    0.0434 C   0  0  0  0  0  0  0  0  0  0  0  0
   -1.1985    0.8911   -0.4080 H   0  0  0  0  0  0  0  0  0  0  0  0
   -1.2746   -0.8439    0.2454 H   0  0  0  0  0  0  0  0  0  0  0  0
    1.1985   -0.8911    0.4080 H   0  0  0  0  0  0  0  0  0  0  0  0
    1.2746    0.8439   -0.2454 H   0  0  0  0  0  0  0  0  0  0  0  0
  1  2  2  0  0  0  0
  1  4  1  0  0  0  0
  2  5  1  0  0  0  0
  3  1  1  0  0  0  0
  6  2  1  0  0  0  0
M  END
>  <Charge>
0.0

>  <InChI>
1/C2H4/c1-2/h1-2H2

>  <Molecular Formula>
C_{2}H_{4}

>  <Name>
ETHYLENE

>  <SMILES>
C=C

>  <logK ((\xb1)-2-BUTANOL)>
0.32

>  <logK (1,4-DIOXANE)>
0.43

>  <logK (1-OCTANOL)>
0.28

>  <logK (1-PROPANOL)>
0.38

>  <logK (ACETIC ACID)>
0.547

>  <logK (ACETONE)>
0.56

>  <logK (BENZONITRILE)>
0.3299

>  <logK (BROMOBENZENE)>
0.38

>  <logK (CARBON TETRACHLORIDE)>
0.57

>  <logK (CHLOROBENZENE)>
0.45

>  <logK (CYCLOHEXANONE)>
0.401

>  <logK (DECANE)>
0.421

>  <logK (DICHLOROETHANE)>
0.36

>  <logK (DIMETHYLFORMAMIDE)>
0.33

>  <logK (DODECANE)>
0.37

>  <logK (ETHANOL)>
0.41

>  <logK (ETHYLENE GLYCOL)>
-0.37

>  <logK (HEPTAN-1-OL)>
0.312

>  <logK (HEPTANE)>
0.457

>  <logK (HEXADECANE)>
0.289

>  <logK (HEXANE)>
0.471

>  <logK (HEXANOL)>
0.318

>  <logK (ISOBUTANOL)>
0.34

>  <logK (ISOPROPANOL)>
0.33

>  <logK (M-XYLENE)>
0.447

>  <logK (METHANOL)>
0.41

>  <logK (METHYL ACETATE)>
0.547

>  <logK (N,N-DIMETHYLACETAMIDE)>
0.33

>  <logK (N-BUTANOL)>
0.34

>  <logK (N-METHYLFORMAMIDE)>
0.15

>  <logK (N-METHYLPYRROLIDONE)>
0.29

>  <logK (NONANE)>
0.426

>  <logK (OCTANE)>
0.44

>  <logK (PENTANE)>
0.51

>  <logK (PENTANOL)>
0.35

>  <logK (PHENYLAMINE)>
0.109

>  <logK (PROPYLENE CARBONATE)>
0.18

>  <logK (TERT-BUTANOL)>
0.36

>  <logK (TETRAETHYLENE GLYCOL DIMETHYL ETHER)>
0.215

>  <logK (TETRAHYDROFURAN)>
0.6

>  <logK (TOLUENE)>
0.503

>  <logK (TRIBUTYL PHOSPHATE)>
0.38

>  <mean polarizability>
3.97

>  <dipole moment>
1.37570771956e-12

$$$$
032
 OpenBabel08101817183D

  9  8  0  0  0  0  0  0  0  0999 V2000
   -1.1303    0.1663    0.0697 C   0  0  0  0  0  0  0  0  0  0  0  0
    0.2747   -0.2638    0.4023 C   0  0  0  0  0  0  0  0  0  0  0  0
    1.3457   -0.0475   -0.3649 C   0  0  0  0  0  0  0  0  0  0  0  0
   -1.4758   -0.2843   -0.8719 H   0  0  0  0  0  0  0  0  0  0  0  0
   -1.8393   -0.1240    0.8541 H   0  0  0  0  0  0  0  0  0  0  0  0
   -1.1984    1.2571   -0.0508 H   0  0  0  0  0  0  0  0  0  0  0  0
    0.4136   -0.7934    1.3491 H   0  0  0  0  0  0  0  0  0  0  0  0
    2.3375   -0.3854   -0.0662 H   0  0  0  0  0  0  0  0  0  0  0  0
    1.2723    0.4751   -1.3214 H   0  0  0  0  0  0  0  0  0  0  0  0
  1  2  1  0  0  0  0
  1  5  1  0  0  0  0
  2  7  1  0  0  0  0
  3  8  1  0  0  0  0
  3  2  2  0  0  0  0
  4  1  1  0  0  0  0
  6  1  1  0  0  0  0
  9  3  1  0  0  0  0
M  END
>  <Charge>
0.0

>  <InChI>
1/C3H6/c1-3-2/h3H,1H2,2H3

>  <Molecular Formula>
C_{3}H_{6}

>  <Name>
PROPENE

>  <SMILES>
CC=C

>  <logK ((\xb1)-2-BUTANOL)>
0.97

>  <logK (1,4-DIOXANE)>
1.0

>  <logK (1-PROPANOL)>
0.99

>  <logK (2,2,4-TRIMETHYLPENTANE)>
1.18

>  <logK (2-METHYLBUTAN-1-OL)>
0.95

>  <logK (2-PENTANOL)>
0.96

>  <logK (3-METHYLBUTAN-1-OL)>
0.963

>  <logK (ACETIC ACID)>
0.981

>  <logK (ALLYL ALCOHOL)>
0.92

>  <logK (BUTANONE)>
1.13

>  <logK (CARBON TETRACHLORIDE)>
1.35

>  <logK (DECANE)>
1.233

>  <logK (DIMETHYLFORMAMIDE)>
0.95

>  <logK (ETHYL ACETATE)>
1.11

>  <logK (ETHYLENE GLYCOL)>
0.33

>  <logK (HEPTANE)>
1.276

>  <logK (HEXADECANE)>
0.946

>  <logK (HEXANE)>
1.286

>  <logK (ISOBUTANOL)>
0.95

>  <logK (ISOPROPANOL)>
0.97

>  <logK (M-XYLENE)>
1.158

>  <logK (METHANOL)>
0.95

>  <logK (N-BUTANOL)>
1.03

>  <logK (N-METHYLPYRROLIDONE)>
0.91

>  <logK (NONANE)>
1.241

>  <logK (O-XYLENE)>
1.144

>  <logK (OCTANE)>
1.256

>  <logK (P-XYLENE)>
1.161

>  <logK (PENTAN-3-OL)>
0.96

>  <logK (PENTANE)>
1.31

>  <logK (PENTANOL)>
0.97

>  <logK (PHENYLAMINE)>
0.789

>  <logK (PROPYLENE CARBONATE)>
0.72

>  <logK (TERT-AMYL ALCOHOL)>
1.02

>  <logK (TERT-BUTANOL)>
0.99

>  <logK (TETRAHYDROPYRAN)>
1.26

>  <logK (TOLUENE)>
1.208

>  <mean polarizability>
5.92

>  <dipole moment>
0.412362536369

$$$$
033
 OpenBabel08101817183D

 12 11  0  0  0  0  0  0  0  0999 V2000
   -1.9620    0.1278    0.1063 C   0  0  0  0  0  0  0  0  0  0  0  0
   -0.4848    0.4105    0.2090 C   0  0  0  0  0  0  0  0  0  0  0  0
    0.4848   -0.4105   -0.2090 C   0  0  0  0  0  0  0  0  0  0  0  0
    1.9620   -0.1278   -0.1064 C   0  0  0  0  0  0  0  0  0  0  0  0
   -2.2411   -0.7834    0.6553 H   0  0  0  0  0  0  0  0  0  0  0  0
   -2.5583    0.9514    0.5171 H   0  0  0  0  0  0  0  0  0  0  0  0
   -2.2775   -0.0155   -0.9375 H   0  0  0  0  0  0  0  0  0  0  0  0
   -0.1973    1.3654    0.6628 H   0  0  0  0  0  0  0  0  0  0  0  0
    0.1972   -1.3654   -0.6628 H   0  0  0  0  0  0  0  0  0  0  0  0
    2.5582   -0.9514   -0.5171 H   0  0  0  0  0  0  0  0  0  0  0  0
    2.2411    0.7834   -0.6553 H   0  0  0  0  0  0  0  0  0  0  0  0
    2.2775    0.0155    0.9374 H   0  0  0  0  0  0  0  0  0  0  0  0
  1  2  1  0  0  0  0
  1  6  1  0  0  0  0
  1  5  1  0  0  0  0
  2  8  1  0  0  0  0
  3  4  1  0  0  0  0
  3  2  2  0  0  0  0
  4 12  1  0  0  0  0
  7  1  1  0  0  0  0
  9  3  1  0  0  0  0
 10  4  1  0  0  0  0
 11  4  1  0  0  0  0
M  END
>  <Charge>
0.0

>  <InChI>
1/C4H8/c1-3-4-2/h3-4H,1-2H3/b4-3+

>  <Molecular Formula>
C_{4}H_{8}

>  <Name>
(2E)-2-BUTENE

>  <SMILES>
C/C=C/C

>  <logK ((\xb1)-2-BUTANOL)>
1.56

>  <logK (1-PROPANOL)>
1.57

>  <logK (2-METHYLBUTAN-1-OL)>
1.57

>  <logK (2-PENTANOL)>
1.58

>  <logK (3-METHYLBUTAN-1-OL)>
1.572

>  <logK (ACETIC ACID)>
1.672

>  <logK (ACETONE)>
1.81

>  <logK (ALLYL ALCOHOL)>
1.48

>  <logK (DIMETHYLFORMAMIDE)>
1.55

>  <logK (ETHYL ACETATE)>
2.03

>  <logK (ISOBUTANOL)>
1.57

>  <logK (ISOPROPANOL)>
1.55

>  <logK (M-XYLENE)>
1.829

>  <logK (METHANOL)>
1.45

>  <logK (N,N-DIMETHYLACETAMIDE)>
1.59

>  <logK (N-BUTANOL)>
1.57

>  <logK (O-XYLENE)>
1.812

>  <logK (P-XYLENE)>
1.821

>  <logK (PENTAN-3-OL)>
1.58

>  <logK (PENTANOL)>
1.58

>  <logK (SULFOLANE)>
0.993

>  <logK (TERT-AMYL ALCOHOL)>
1.64

>  <logK (TERT-BUTANOL)>
1.54

>  <logK (TETRAHYDROPYRAN)>
1.92

>  <logK (TOLUENE)>
1.871

>  <mean polarizability>
7.93

>  <dipole moment>
0.000108452425339

$$$$
034
 OpenBabel08101817183D

 12 11  0  0  0  0  0  0  0  0999 V2000
   -1.5255   -0.3287   -0.2055 C   0  0  0  0  0  0  0  0  0  0  0  0
   -0.6493    0.8360    0.1627 C   0  0  0  0  0  0  0  0  0  0  0  0
    0.6865    0.7814    0.2548 C   0  0  0  0  0  0  0  0  0  0  0  0
    1.5075   -0.4527    0.0037 C   0  0  0  0  0  0  0  0  0  0  0  0
   -2.5859   -0.0515   -0.2188 H   0  0  0  0  0  0  0  0  0  0  0  0
   -1.2732   -0.7283   -1.2006 H   0  0  0  0  0  0  0  0  0  0  0  0
   -1.4088   -1.1646    0.5024 H   0  0  0  0  0  0  0  0  0  0  0  0
   -1.1437    1.7882    0.3676 H   0  0  0  0  0  0  0  0  0  0  0  0
    1.2240    1.6914    0.5308 H   0  0  0  0  0  0  0  0  0  0  0  0
    1.3626   -0.8361   -1.0188 H   0  0  0  0  0  0  0  0  0  0  0  0
    2.5786   -0.2626    0.1375 H   0  0  0  0  0  0  0  0  0  0  0  0
    1.2273   -1.2724    0.6842 H   0  0  0  0  0  0  0  0  0  0  0  0
  1  2  1  0  0  0  0
  1  7  1  0  0  0  0
  2  3  2  0  0  0  0
  2  8  1  0  0  0  0
  3  9  1  0  0  0  0
  4 11  1  0  0  0  0
  4  3  1  0  0  0  0
  4 12  1  0  0  0  0
  5  1  1  0  0  0  0
  6  1  1  0  0  0  0
 10  4  1  0  0  0  0
M  END
>  <Charge>
0.0

>  <InChI>
1/C4H8/c1-3-4-2/h3-4H,1-2H3/b4-3-

>  <Molecular Formula>
C_{4}H_{8}

>  <Name>
(2Z)-2-BUTENE

>  <SMILES>
C/C=C\C

>  <logK ((\xb1)-2-BUTANOL)>
1.62

>  <logK (1-PROPANOL)>
1.63

>  <logK (2-METHYLBUTAN-1-OL)>
1.62

>  <logK (2-PENTANOL)>
1.63

>  <logK (3-METHYLBUTAN-1-OL)>
1.623

>  <logK (ALLYL ALCOHOL)>
1.56

>  <logK (ISOBUTANOL)>
1.62

>  <logK (ISOPROPANOL)>
1.61

>  <logK (M-XYLENE)>
1.881

>  <logK (METHANOL)>
1.51

>  <logK (N-BUTANOL)>
1.63

>  <logK (O-XYLENE)>
1.863

>  <logK (P-XYLENE)>
1.87

>  <logK (PENTAN-3-OL)>
1.62

>  <logK (PENTANOL)>
1.64

>  <logK (SULFOLANE)>
1.085

>  <logK (TERT-AMYL ALCOHOL)>
1.7

>  <logK (TERT-BUTANOL)>
1.65

>  <logK (TETRAHYDROPYRAN)>
1.98

>  <logK (TOLUENE)>
1.925

>  <mean polarizability>
7.8

>  <dipole moment>
0.345369397364

$$$$
035
 OpenBabel08101817183D

 10  9  0  0  0  0  0  0  0  0999 V2000
   -1.7427    0.4457    0.4396 C   0  0  0  0  0  0  0  0  0  0  0  0
   -0.6291   -0.2766    0.2322 C   0  0  0  0  0  0  0  0  0  0  0  0
    0.6291    0.2766   -0.2322 C   0  0  0  0  0  0  0  0  0  0  0  0
    1.7427   -0.4457   -0.4396 C   0  0  0  0  0  0  0  0  0  0  0  0
   -1.7593    1.5228    0.2637 H   0  0  0  0  0  0  0  0  0  0  0  0
   -2.6659   -0.0133    0.7897 H   0  0  0  0  0  0  0  0  0  0  0  0
   -0.6460   -1.3551    0.4185 H   0  0  0  0  0  0  0  0  0  0  0  0
    0.6460    1.3551   -0.4185 H   0  0  0  0  0  0  0  0  0  0  0  0
    2.6659    0.0133   -0.7897 H   0  0  0  0  0  0  0  0  0  0  0  0
    1.7593   -1.5228   -0.2637 H   0  0  0  0  0  0  0  0  0  0  0  0
  1  6  1  0  0  0  0
  2  7  1  0  0  0  0
  2  1  2  0  0  0  0
  3  2  1  0  0  0  0
  4 10  1  0  0  0  0
  4  3  2  0  0  0  0
  5  1  1  0  0  0  0
  8  3  1  0  0  0  0
  9  4  1  0  0  0  0
M  END
>  <Charge>
0.0

>  <InChI>
1/C4H6/c1-3-4-2/h3-4H,1-2H2

>  <Molecular Formula>
C_{4}H_{6}

>  <Name>
BUTADIENE

>  <SMILES>
C=CC=C

>  <logK ((\xb1)-2-BUTANOL)>
1.52

>  <logK (1,4-DIOXANE)>
1.49

>  <logK (1-PROPANOL)>
1.58

>  <logK (2-METHYLBUTAN-1-OL)>
1.51

>  <logK (2-PENTANOL)>
1.52

>  <logK (3-METHYLBUTAN-1-OL)>
1.529

>  <logK (ACETIC ACID)>
1.788

>  <logK (ACETONE)>
2.01

>  <logK (ALLYL ALCOHOL)>
1.55

>  <logK (DIMETHYLFORMAMIDE)>
1.68

>  <logK (ETHYL ACETATE)>
2.08

>  <logK (ETHYLENE GLYCOL)>
0.99

>  <logK (HEPTANE)>
1.96

>  <logK (ISOBUTANOL)>
1.51

>  <logK (ISOPROPANOL)>
1.53

>  <logK (M-XYLENE)>
1.815

>  <logK (METHANOL)>
1.57

>  <logK (N,N-DIMETHYLACETAMIDE)>
1.88

>  <logK (N-BUTANOL)>
1.55

>  <logK (N-METHYLPYRROLIDONE)>
1.73

>  <logK (O-XYLENE)>
1.805

>  <logK (P-XYLENE)>
1.799

>  <logK (PENTAN-3-OL)>
1.53

>  <logK (PENTANOL)>
1.55

>  <logK (PHENYLAMINE)>
1.512

>  <logK (PROPYLENE CARBONATE)>
1.44

>  <logK (SULFOLANE)>
1.324

>  <logK (TERT-AMYL ALCOHOL)>
1.58

>  <logK (TERT-BUTANOL)>
1.52

>  <logK (TETRAHYDROPYRAN)>
1.97

>  <logK (TOLUENE)>
1.868

>  <logK (TRIBUTYL PHOSPHATE)>
1.68

>  <mean polarizability>
8.34

>  <dipole moment>
2.82095355982e-10

$$$$
036
 OpenBabel08101817183D

  4  3  0  0  0  0  0  0  0  0999 V2000
    0.5945   -0.0189    0.4342 C   0  0  0  0  0  0  0  0  0  0  0  0
   -0.5945    0.0189    0.2343 C   0  0  0  0  0  0  0  0  0  0  0  0
    1.6491   -0.0526    0.6115 H   0  0  0  0  0  0  0  0  0  0  0  0
   -1.6491    0.0526    0.0570 H   0  0  0  0  0  0  0  0  0  0  0  0
  1  3  1  0  0  0  0
  2  1  3  0  0  0  0
  4  2  1  0  0  0  0
M  END
>  <Charge>
0.0

>  <InChI>
1/C2H2/c1-2/h1-2H

>  <Molecular Formula>
C_{2}H_{2}

>  <Name>
ACETYLENE

>  <SMILES>
C#C

>  <logK (1,4-DIOXANE)>
1.25

>  <logK (2,2,4-TRIMETHYLPENTANE)>
0.273

>  <logK (ACETONE)>
1.34

>  <logK (CARBON TETRACHLORIDE)>
0.476

>  <logK (DIMETHYLFORMAMIDE)>
1.28

>  <logK (ETHYLENE GLYCOL)>
0.5

>  <logK (HEXADECANE)>
0.15

>  <logK (HEXANE)>
0.38

>  <logK (METHANOL)>
1.04

>  <logK (METHYL ACETATE)>
1.29

>  <logK (N-BUTANOL)>
0.6

>  <logK (P-XYLENE)>
0.59

>  <mean polarizability>
3.19

>  <dipole moment>
3.29167157191e-10

$$$$
037
 OpenBabel08101817183D

  5  4  0  0  0  0  0  0  0  0999 V2000
    0.0000    0.0000    0.0000 C   0  0  0  0  0  0  0  0  0  0  0  0
    0.4985   -0.4196    1.1678 F   0  0  0  0  0  0  0  0  0  0  0  0
   -0.7409   -0.9717   -0.5433 F   0  0  0  0  0  0  0  0  0  0  0  0
   -0.7613    1.0806    0.2028 F   0  0  0  0  0  0  0  0  0  0  0  0
    1.0037    0.3107   -0.8273 F   0  0  0  0  0  0  0  0  0  0  0  0
  1  4  1  0  0  0  0
  1  2  1  0  0  0  0
  3  1  1  0  0  0  0
  5  1  1  0  0  0  0
M  END
>  <Charge>
0.0

>  <InChI>
1/CF4/c2-1(3,4)5

>  <Molecular Formula>
CF_{4}

>  <Name>
PERFLUOROMETHANE

>  <SMILES>
C(F)(F)(F)F

>  <logK ((\xb1)-2-BUTANOL)>
-0.74

>  <logK (1,4-DIOXANE)>
-1.01

>  <logK (1-OCTANOL)>
-0.95

>  <logK (1-PROPANOL)>
-0.76

>  <logK (2,2,4-TRIMETHYLPENTANE)>
-0.414

>  <logK (BROMOBENZENE)>
-1.15

>  <logK (CARBON TETRACHLORIDE)>
-0.6

>  <logK (CHLOROBENZENE)>
-0.95

>  <logK (CYCLOHEXANONE)>
-1.031

>  <logK (CYCLOOCTANE)>
-0.914

>  <logK (DECAN-1-OL)>
-0.994

>  <logK (DECANE)>
-0.632

>  <logK (DIMETHYLFORMAMIDE)>
-1.14

>  <logK (DODECANE)>
-0.72

>  <logK (ETHANOL)>
-0.72

>  <logK (HEPTAN-1-OL)>
-0.914

>  <logK (HEPTANE)>
-0.456

>  <logK (HEXANE)>
-0.364

>  <logK (HEXANOL)>
-0.885

>  <logK (ISOBUTANOL)>
-0.73

>  <logK (M-XYLENE)>
-0.827

>  <logK (METHANOL)>
-0.73

>  <logK (METHYLCYCLOHEXANE)>
-0.58

>  <logK (N-BUTANOL)>
-0.81

>  <logK (N-METHYLPYRROLIDONE)>
-1.32

>  <logK (NONANE)>
-0.589

>  <logK (NONANOL)>
-0.967

>  <logK (O-XYLENE)>
-0.888

>  <logK (OCTANE)>
-0.531

>  <logK (P-XYLENE)>
-0.814

>  <logK (PENTANOL)>
-0.85

>  <logK (TERT-BUTANOL)>
-0.59

>  <logK (TETRAETHYLENE GLYCOL DIMETHYL ETHER)>
-1.294

>  <logK (TETRAHYDROFURAN)>
-0.73

>  <logK (TETRAHYDROPYRAN)>
-0.735

>  <logK (TOLUENE)>
-0.799

>  <logK (UNDECANE)>
-0.68

>  <logK (UNDECANOL)>
-1.017

>  <mean polarizability>
3.01

>  <dipole moment>
9.07505978944e-05

$$$$
038
 OpenBabel08101817183D

  8  7  0  0  0  0  0  0  0  0999 V2000
   -0.7976    0.0792   -0.0489 C   0  0  0  0  0  0  0  0  0  0  0  0
    0.6831   -0.2280    0.0289 C   0  0  0  0  0  0  0  0  0  0  0  0
    1.6670    1.2771    0.2189 Cl  0  0  0  0  0  0  0  0  0  0  0  0
   -1.1472    0.5801    0.8621 H   0  0  0  0  0  0  0  0  0  0  0  0
   -1.3598   -0.8596   -0.1637 H   0  0  0  0  0  0  0  0  0  0  0  0
   -1.0247    0.7232   -0.9071 H   0  0  0  0  0  0  0  0  0  0  0  0
    0.9282   -0.8577    0.8909 H   0  0  0  0  0  0  0  0  0  0  0  0
    1.0510   -0.7143   -0.8810 H   0  0  0  0  0  0  0  0  0  0  0  0
  1  2  1  0  0  0  0
  1  4  1  0  0  0  0
  2  3  1  0  0  0  0
  2  7  1  0  0  0  0
  5  1  1  0  0  0  0
  6  1  1  0  0  0  0
  8  2  1  0  0  0  0
M  END
>  <Charge>
0.0

>  <InChI>
1/C2H5Cl/c1-2-3/h2H2,1H3

>  <Molecular Formula>
C_{2}H_{5}Cl

>  <Name>
MONOCHLOROETHANE

>  <SMILES>
CCCl

>  <logK ((\xb1)-2-BUTANOL)>
1.77

>  <logK (1-PROPANOL)>
1.86

>  <logK (2-METHYLBUTAN-1-OL)>
1.76

>  <logK (2-PENTANOL)>
1.73

>  <logK (3-METHYLBUTAN-1-OL)>
1.782

>  <logK (ALLYL ALCOHOL)>
1.91

>  <logK (BENZONITRILE)>
2.113

>  <logK (CHLOROBENZENE)>
2.17

>  <logK (DIMETHYLFORMAMIDE)>
2.01

>  <logK (HEXADECANE)>
1.678

>  <logK (HEXANE)>
1.908

>  <logK (ISOBUTANOL)>
1.78

>  <logK (ISOPROPANOL)>
1.81

>  <logK (M-XYLENE)>
2.106

>  <logK (METHANOL)>
1.93

>  <logK (N,N-DIMETHYLACETAMIDE)>
2.15

>  <logK (N-BUTANOL)>
1.83

>  <logK (O-XYLENE)>
2.099

>  <logK (P-XYLENE)>
2.078

>  <logK (PENTAN-3-OL)>
1.77

>  <logK (PENTANOL)>
1.81

>  <logK (PHENYLAMINE)>
1.941

>  <logK (SULFOLANE)>
1.789

>  <logK (TERT-AMYL ALCOHOL)>
1.83

>  <logK (TERT-BUTANOL)>
1.79

>  <logK (TETRAHYDROPYRAN)>
2.26

>  <logK (TOLUENE)>
2.178

>  <mean polarizability>
6.34

>  <dipole moment>
2.08867403432

$$$$
039
 OpenBabel08101817183D

  5  4  0  0  0  0  0  0  0  0999 V2000
   -0.0047   -0.1478    0.0024 C   0  0  0  0  0  0  0  0  0  0  0  0
   -1.4577    0.8791   -0.0356 Cl  0  0  0  0  0  0  0  0  0  0  0  0
    1.5103    0.7859    0.0086 Cl  0  0  0  0  0  0  0  0  0  0  0  0
   -0.0110   -0.7737   -0.8919 H   0  0  0  0  0  0  0  0  0  0  0  0
   -0.0370   -0.7435    0.9165 H   0  0  0  0  0  0  0  0  0  0  0  0
  1  3  1  0  0  0  0
  1  5  1  0  0  0  0
  2  1  1  0  0  0  0
  4  1  1  0  0  0  0
M  END
>  <Charge>
0.0

>  <InChI>
1/CH2Cl2/c2-1-3/h1H2

>  <Molecular Formula>
CH_{2}Cl_{2}

>  <Name>
DICHLOROMETHANE

>  <SMILES>
C(Cl)Cl

>  <logK ((\xb1)-1,2-PROPANEDIOL)>
2.162

>  <logK (1,4-DIOXANE)>
3.0

>  <logK (1,5-DIMETHYL-2-PYRROLIDINONE)>
3.173

>  <logK (1-CHLOROBUTANE)>
2.599

>  <logK (1-ETHYL-2-PYRROLIDINONE)>
3.136

>  <logK (1-HEXADECENE)>
2.025

>  <logK (1-METHOXYBUTANE)>
2.768

>  <logK (1-METHYL-2-PIPERIDINONE)>
3.26

>  <logK (1-OCTANOL)>
2.27

>  <logK (1-PROPANOL)>
2.45

>  <logK (2,2,4-TRIMETHYLPENTANE)>
2.08

>  <logK (2-ISOPROPOXYETHANOL)>
2.76932311992

>  <logK (2-PROPOXYETHANOL)>
2.72658944998

>  <logK (5,8,11,14-TETRAOXAOCTADECANE)>
2.799

>  <logK (ACETONE)>
3.03

>  <logK (ACETOPHENONE)>
2.781

>  <logK (BENZONITRILE)>
2.773

>  <logK (BUTANONE)>
2.97

>  <logK (CARBON TETRACHLORIDE)>
2.46

>  <logK (CHLOROBENZENE)>
2.59

>  <logK (CHLOROFORM)>
2.69

>  <logK (CYCLOHEXANONE)>
3.024

>  <logK (DIBUTYL ETHER)>
2.35

>  <logK (DICHLOROETHANE)>
2.73

>  <logK (DICHLOROMETHANE)>
2.827

>  <logK (DIETHYL ETHER)>
2.84

>  <logK (DIETHYLENE GLYCOL DIBUTYL ETHER)>
2.806

>  <logK (DIIODOMETHANE)>
2.05

>  <logK (EPSILON-CAPROLACTONE)>
2.867

>  <logK (ETHANOL)>
2.462

>  <logK (ETHYL ACETATE)>
2.96

>  <logK (FORMAMIDE)>
1.96

>  <logK (HEPTANE)>
2.13

>  <logK (HEXADECANE)>
2.019

>  <logK (ISOPROPANOL)>
2.29

>  <logK (M-XYLENE)>
2.624

>  <logK (METHANOL)>
2.55

>  <logK (METHOXYETHANOL)>
2.738

>  <logK (METHYL ACETATE)>
2.953

>  <logK (N,N-DIBUTYLFORMAMID)>
2.87

>  <logK (N,N-DIETHYLACETAMIDE)>
3.14

>  <logK (N,N-DIMETHYLACETAMIDE)>
3.18

>  <logK (N-BUTANOL)>
2.41

>  <logK (N-ETHYLACETAMIDE)>
2.73

>  <logK (N-ETHYLFORMAMIDE)>
2.71

>  <logK (N-METHYLACETAMIDE)>
2.74

>  <logK (N-METHYLPYRROLIDONE)>
3.1

>  <logK (O-XYLENE)>
2.627

>  <logK (OCTANE)>
2.1

>  <logK (P-XYLENE)>
2.602

>  <logK (PENTANE)>
2.13

>  <logK (PENTANOL)>
2.34

>  <logK (PHENYLAMINE)>
2.522

>  <logK (PROPYL ETHER)>
2.576

>  <logK (PROPYLENE CARBONATE)>
2.55

>  <logK (SULFOLANE)>
2.703

>  <logK (TETRAETHYLENE GLYCOL DIMETHYL ETHER)>
2.961

>  <logK (TETRAHYDROFURAN)>
3.13

>  <logK (TOLUENE)>
2.67

>  <mean polarizability>
6.48

>  <dipole moment>
1.57659783398

>  <Formula>
CH2Cl2

$$$$
040
 OpenBabel08101817183D

  5  4  0  0  0  0  0  0  0  0999 V2000
    0.0000   -0.0032    0.1058 C   0  0  0  0  0  0  0  0  0  0  0  0
   -0.8370   -1.4586   -0.4775 Cl  0  0  0  0  0  0  0  0  0  0  0  0
    1.6934    0.0241   -0.4335 Cl  0  0  0  0  0  0  0  0  0  0  0  0
   -0.8564    1.4731   -0.3906 Cl  0  0  0  0  0  0  0  0  0  0  0  0
   -0.0000   -0.0355    1.1958 H   0  0  0  0  0  0  0  0  0  0  0  0
  1  5  1  0  0  0  0
  2  1  1  0  0  0  0
  3  1  1  0  0  0  0
  4  1  1  0  0  0  0
M  END
>  <Charge>
0.0

>  <InChI>
1/CHCl3/c2-1(3)4/h1H

>  <Molecular Formula>
CHCl_{3}

>  <Name>
CHLOROFORM

>  <SMILES>
C(Cl)(Cl)Cl

>  <logK ((\xb1)-1,2-PROPANEDIOL)>
2.565

>  <logK (1,4-DIOXANE)>
3.4

>  <logK (1-CHLOROBUTANE)>
2.987

>  <logK (1-HEXADECENE)>
2.507

>  <logK (1-METHYL-2-PIPERIDINONE)>
3.86

>  <logK (1-OCTANOL)>
2.8

>  <logK (2,2,4-TRIMETHYLPENTANE)>
2.577

>  <logK (4-METHYLPENTAN-2-ONE)>
3.309

>  <logK (5,8,11,14-TETRAOXAOCTADECANE)>
3.354

>  <logK (ACETONE)>
3.41

>  <logK (ACETOPHENONE)>
3.155

>  <logK (BUTANONE)>
3.46

>  <logK (CARBON TETRACHLORIDE)>
2.94

>  <logK (CHLOROFORM)>
3.07

>  <logK (CYCLOHEXANONE)>
3.468

>  <logK (DIBUTYL ETHER)>
3.05

>  <logK (DICHLOROETHANE)>
3.06

>  <logK (DIETHYLENE GLYCOL DIBUTYL ETHER)>
3.316

>  <logK (EPSILON-CAPROLACTONE)>
3.34

>  <logK (ETHANOL)>
3.06

>  <logK (ETHYL ACETATE)>
3.38

>  <logK (FORMAMIDE)>
2.13

>  <logK (HEPTANE)>
2.65

>  <logK (HEXADECANE)>
2.48

>  <logK (HEXANE)>
2.65

>  <logK (METHANOL)>
3.1

>  <logK (METHYL ACETATE)>
3.424

>  <logK (N,N-DIBUTYLFORMAMID)>
3.54

>  <logK (N,N-DIETHYLACETAMIDE)>
3.8

>  <logK (N,N-DIMETHYLACETAMIDE)>
3.8

>  <logK (N-BUTANOL)>
2.95

>  <logK (N-ETHYLACETAMIDE)>
3.35

>  <logK (N-ETHYLFORMAMIDE)>
3.23

>  <logK (N-METHYLACETAMIDE)>
3.35

>  <logK (N-METHYLPYRROLIDONE)>
3.84

>  <logK (OCTANE)>
2.58

>  <logK (PHENYLAMINE)>
2.842

>  <logK (PROPYLENE CARBONATE)>
2.88

>  <logK (PYRIDINE)>
3.393

>  <logK (SULFOLANE)>
3.035

>  <logK (TETRAETHYLENE GLYCOL DIMETHYL ETHER)>
3.406

>  <logK (TETRAHYDROFURAN)>
3.76

>  <logK (TOLUENE)>
3.122

>  <logK (TRIBUTYL PHOSPHATE)>
3.61

>  <logK (UNDECANE)>
2.53

>  <mean polarizability>
8.6

>  <dipole moment>
1.02075707949

>  <Formula>
CHCl3

$$$$
041
 OpenBabel08101817183D

  5  4  0  0  0  0  0  0  0  0999 V2000
   -0.0000    0.0000    0.0000 C   0  0  0  0  0  0  0  0  0  0  0  0
   -1.1144   -1.3790   -0.1741 Cl  0  0  0  0  0  0  0  0  0  0  0  0
   -0.9081    1.5229   -0.1729 Cl  0  0  0  0  0  0  0  0  0  0  0  0
    1.2561   -0.0888   -1.2601 Cl  0  0  0  0  0  0  0  0  0  0  0  0
    0.7664   -0.0551    1.6072 Cl  0  0  0  0  0  0  0  0  0  0  0  0
  1  5  1  0  0  0  0
  2  1  1  0  0  0  0
  3  1  1  0  0  0  0
  4  1  1  0  0  0  0
M  END
>  <Charge>
0.0

>  <InChI>
1/CCl4/c2-1(3,4)5

>  <Molecular Formula>
CCl_{4}

>  <Name>
CARBON TETRACHLORIDE

>  <SMILES>
C(Cl)(Cl)(Cl)Cl

>  <logK ((\xb1)-1,2-PROPANEDIOL)>
2.192

>  <logK (1,4-DIOXANE)>
3.17

>  <logK (1-CHLOROBUTANE)>
3.143

>  <logK (1-ETHOXYBUTANE)>
3.144

>  <logK (1-HEXADECENE)>
2.79400226647

>  <logK (1-METHOXYBUTANE)>
3.22

>  <logK (1-OCTANOL)>
2.79

>  <logK (1-PROPANOL)>
2.75

>  <logK (4-METHYLPENTAN-2-ONE)>
3.091

>  <logK (5,8,11,14-TETRAOXAOCTADECANE)>
3.022

>  <logK (ACETONE)>
3.04

>  <logK (ACETOPHENONE)>
2.924

>  <logK (BUTANONE)>
3.04

>  <logK (BUTYL ACETATE)>
3.12

>  <logK (CARBON TETRACHLORIDE)>
3.24

>  <logK (CHLOROFORM)>
3.25

>  <logK (CYCLOHEXANONE)>
3.167

>  <logK (DIBUTYL ETHER)>
3.05

>  <logK (DICHLOROETHANE)>
3.04

>  <logK (DIETHYL ETHER)>
3.22

>  <logK (DIETHYLENE GLYCOL DIBUTYL ETHER)>
3.044

>  <logK (DIIODOMETHANE)>
2.3

>  <logK (ETHANOL)>
2.75

>  <logK (ETHYL ACETATE)>
3.1

>  <logK (ETHYLBENZENE)>
3.105

>  <logK (FORMAMIDE)>
1.59

>  <logK (HEPTANE)>
3.0

>  <logK (HEXADECANE)>
2.823

>  <logK (HEXANE)>
3.03

>  <logK (HEXANOL)>
2.812

>  <logK (M-XYLENE)>
3.144

>  <logK (METHANOL)>
2.66

>  <logK (N,N-DIBUTYLFORMAMID)>
3.01

>  <logK (N,N-DIMETHYLACETAMIDE)>
3.31

>  <logK (N-BUTANOL)>
2.84

>  <logK (N-METHYLACETAMIDE)>
2.86

>  <logK (N-METHYLPYRROLIDONE)>
3.05

>  <logK (O-XYLENE)>
3.183

>  <logK (OCTANE)>
2.92

>  <logK (P-XYLENE)>
3.19

>  <logK (PHENYLAMINE)>
2.581

>  <logK (PROPYL ETHER)>
3.118

>  <logK (SULFOLANE)>
2.569

>  <logK (TERT-BUTANOL)>
2.74

>  <logK (TETRAETHYLENE GLYCOL DIMETHYL ETHER)>
2.899

>  <logK (TETRAHYDROFURAN)>
3.41

>  <logK (TOLUENE)>
3.173

>  <logK (TRIBUTYL PHOSPHATE)>
2.98

>  <logK (UNDECANE)>
2.68

>  <mean polarizability>
10.61

>  <dipole moment>
0.000316142053321

>  <experimental polarizability source>
@Article{Bosque2002, Title = {Polarizabilities of Solvents from the Chemical Composition}, Author = {Bosque, Ramon and Sales, Joaquim}, Journal = {Journal of Chemical Information and Computer Sciences}, Year = {2002}, Note = {PMID: 12377003}, Number = {5}, Pages = {1154-1163}, Volume = {42}, Doi = {10.1021/ci025528x}, Url = {https://doi.org/10.1021/ci025528x}}

>  <Formula>
CCl4

$$$$
042
 OpenBabel08101817183D

  6  5  0  0  0  0  0  0  0  0999 V2000
   -0.7599   -0.1557    0.1807 C   0  0  0  0  0  0  0  0  0  0  0  0
    0.5111    0.1048   -0.1213 C   0  0  0  0  0  0  0  0  0  0  0  0
    1.7835   -1.0488    0.0914 Cl  0  0  0  0  0  0  0  0  0  0  0  0
    1.0326    1.6258   -0.7614 Cl  0  0  0  0  0  0  0  0  0  0  0  0
   -1.5261    0.6006    0.0299 H   0  0  0  0  0  0  0  0  0  0  0  0
   -1.0411   -1.1266    0.5807 H   0  0  0  0  0  0  0  0  0  0  0  0
  1  6  1  0  0  0  0
  2  3  1  0  0  0  0
  2  1  2  0  0  0  0
  4  2  1  0  0  0  0
  5  1  1  0  0  0  0
M  END
>  <Charge>
0.0

>  <InChI>
1/C2H2Cl2/c1-2(3)4/h1H2

>  <Molecular Formula>
C_{2}H_{2}Cl_{2}

>  <Name>
1,1-DICHLOROETHENE

>  <SMILES>
C=C(Cl)Cl

>  <logK (ETHANOL)>
2.38

>  <logK (HEXADECANE)>
2.11

>  <logK (METHANOL)>
2.16

>  <mean polarizability>
8.18

>  <dipole moment>
1.19800756289

$$$$
043
 OpenBabel08101817183D

  5  4  0  0  0  0  0  0  0  0999 V2000
   -0.2356    0.0070    0.0006 C   0  0  0  0  0  0  0  0  0  0  0  0
    1.9231   -0.0573   -0.0045 I   0  0  0  0  0  0  0  0  0  0  0  0
   -0.5608   -0.0072    1.0418 H   0  0  0  0  0  0  0  0  0  0  0  0
   -0.5902   -0.8720   -0.5397 H   0  0  0  0  0  0  0  0  0  0  0  0
   -0.5365    0.9295   -0.4982 H   0  0  0  0  0  0  0  0  0  0  0  0
  1  3  1  0  0  0  0
  2  1  1  0  0  0  0
  4  1  1  0  0  0  0
  5  1  1  0  0  0  0
M  END
>  <Charge>
0.0

>  <InChI>
1/CH3I/c1-2/h1H3

>  <Molecular Formula>
CH_{3}I

>  <Name>
METHYL IODIDE

>  <SMILES>
CI

>  <logK (1-CHLOROBUTANE)>
2.524

>  <logK (1-OCTANOL)>
2.16

>  <logK (2,2,4-TRIMETHYLPENTANE)>
2.152

>  <logK (ACETONE)>
2.6

>  <logK (ACETOPHENONE)>
2.514

>  <logK (BENZONITRILE)>
2.5

>  <logK (BUTANONE)>
2.55

>  <logK (CARBON TETRACHLORIDE)>
2.53

>  <logK (CHLOROFORM)>
2.78

>  <logK (CYCLOHEXANONE)>
2.624

>  <logK (DICHLOROETHANE)>
2.65

>  <logK (DIMETHYLFORMAMIDE)>
2.56

>  <logK (ETHANOL)>
2.19

>  <logK (ETHYL ACETATE)>
2.54

>  <logK (HEPTANE)>
2.22

>  <logK (METHANOL)>
2.35

>  <logK (N,N-DIMETHYLACETAMIDE)>
2.66

>  <logK (N-BUTANOL)>
2.23

>  <logK (N-METHYLPYRROLIDONE)>
2.76

>  <logK (OCTANE)>
2.19

>  <logK (P-XYLENE)>
2.544

>  <logK (PHENYLAMINE)>
2.249

>  <logK (TOLUENE)>
2.573

>  <mean polarizability>
6.39

>  <dipole moment>
1.67851758074

$$$$
044
 OpenBabel08101817183D

  8  7  0  0  0  0  0  0  0  0999 V2000
   -0.8260    0.0626   -0.0680 C   0  0  0  0  0  0  0  0  0  0  0  0
    0.6480   -0.2767   -0.0242 C   0  0  0  0  0  0  0  0  0  0  0  0
    1.8613    1.3989    0.6776 I   0  0  0  0  0  0  0  0  0  0  0  0
   -1.3886   -0.8137   -0.4275 H   0  0  0  0  0  0  0  0  0  0  0  0
   -1.0287    0.8982   -0.7487 H   0  0  0  0  0  0  0  0  0  0  0  0
   -1.2097    0.3280    0.9244 H   0  0  0  0  0  0  0  0  0  0  0  0
    0.8809   -1.0851    0.6742 H   0  0  0  0  0  0  0  0  0  0  0  0
    1.0628   -0.5122   -1.0080 H   0  0  0  0  0  0  0  0  0  0  0  0
  1  2  1  0  0  0  0
  1  6  1  0  0  0  0
  2  7  1  0  0  0  0
  2  3  1  0  0  0  0
  4  1  1  0  0  0  0
  5  1  1  0  0  0  0
  8  2  1  0  0  0  0
M  END
>  <Charge>
0.0

>  <InChI>
1/C2H5I/c1-2-3/h2H2,1H3

>  <Molecular Formula>
C_{2}H_{5}I

>  <Name>
ETHYL IODIDE

>  <SMILES>
CCI

>  <logK (1-CHLOROBUTANE)>
3.008

>  <logK (1-HEXADECENE)>
2.58939787936

>  <logK (1-OCTANOL)>
2.59

>  <logK (1-PROPANOL)>
2.56

>  <logK (2,2,4-TRIMETHYLPENTANE)>
2.648

>  <logK (ACETONE)>
2.92

>  <logK (ACETOPHENONE)>
2.926

>  <logK (BENZONITRILE)>
2.936

>  <logK (BROMOBENZENE)>
3.09

>  <logK (BUTANONE)>
2.98

>  <logK (CARBON TETRACHLORIDE)>
3.06

>  <logK (CHLOROBENZENE)>
3.06

>  <logK (CYCLOHEXANONE)>
3.066

>  <logK (DICHLOROETHANE)>
3.08

>  <logK (DIETHYL ETHER)>
2.76

>  <logK (DIMETHYLFORMAMIDE)>
2.73

>  <logK (ETHANOL)>
2.59

>  <logK (ETHYL ACETATE)>
2.96

>  <logK (HEPTANE)>
2.7

>  <logK (HEXADECANE)>
2.573

>  <logK (HEXANE)>
2.709

>  <logK (IODOBENZENE)>
3.14

>  <logK (ISOPROPANOL)>
2.58

>  <logK (METHANOL)>
2.62

>  <logK (N,N-DIMETHYLACETAMIDE)>
2.91

>  <logK (N-BUTANOL)>
2.65

>  <logK (OCTANE)>
2.68

>  <logK (P-XYLENE)>
3.034

>  <logK (PHENYLAMINE)>
2.727

>  <logK (PROPYLENE CARBONATE)>
2.71

>  <logK (TERT-BUTANOL)>
2.55

>  <logK (TOLUENE)>
3.086

>  <mean polarizability>
8.67

>  <dipole moment>
2.04537306342

$$$$
045
 OpenBabel08101817183D

  8  7  0  0  0  0  0  0  0  0999 V2000
    0.7884    0.0454    0.0571 C   0  0  0  0  0  0  0  0  0  0  0  0
   -0.7006   -0.1001   -0.1028 C   0  0  0  0  0  0  0  0  0  0  0  0
   -1.2530    1.0820   -0.5575 F   0  0  0  0  0  0  0  0  0  0  0  0
   -1.2902   -0.3759    1.1161 F   0  0  0  0  0  0  0  0  0  0  0  0
    1.0051    0.8534    0.7658 H   0  0  0  0  0  0  0  0  0  0  0  0
    1.2451    0.2804   -0.9115 H   0  0  0  0  0  0  0  0  0  0  0  0
    1.2152   -0.8916    0.4338 H   0  0  0  0  0  0  0  0  0  0  0  0
   -1.0101   -0.8936   -0.8009 H   0  0  0  0  0  0  0  0  0  0  0  0
  1  7  1  0  0  0  0
  1  5  1  0  0  0  0
  2  1  1  0  0  0  0
  2  4  1  0  0  0  0
  3  2  1  0  0  0  0
  6  1  1  0  0  0  0
  8  2  1  0  0  0  0
M  END
>  <Charge>
0.0

>  <InChI>
1/C2H4F2/c1-2(3)4/h2H,1H3

>  <Molecular Formula>
C_{2}H_{4}F_{2}

>  <Name>
F 152A

>  <SMILES>
CC(F)F

>  <logK ((\xb1)-2-BUTANOL)>
0.97

>  <logK (1-PROPANOL)>
1.09

>  <logK (2-METHYLBUTAN-1-OL)>
0.9

>  <logK (2-PENTANOL)>
0.89

>  <logK (3-METHYLBUTAN-1-OL)>
0.9559

>  <logK (ALLYL ALCOHOL)>
1.17

>  <logK (DIMETHYLFORMAMIDE)>
1.55

>  <logK (ISOBUTANOL)>
0.99

>  <logK (ISOPROPANOL)>
1.1

>  <logK (M-XYLENE)>
1.197

>  <logK (METHANOL)>
1.4

>  <logK (N-BUTANOL)>
1.0

>  <logK (N-METHYLPYRROLIDONE)>
1.48

>  <logK (O-XYLENE)>
1.186

>  <logK (P-XYLENE)>
1.191

>  <logK (PENTAN-3-OL)>
0.91

>  <logK (PENTANOL)>
0.94

>  <logK (TERT-AMYL ALCOHOL)>
1.0

>  <logK (TERT-BUTANOL)>
1.04

>  <logK (TETRAHYDROPYRAN)>
1.45

>  <logK (TOLUENE)>
1.282

>  <mean polarizability>
4.56

>  <dipole moment>
2.24518669026

$$$$
046
 OpenBabel08101817183D

  9  8  0  0  0  0  0  0  0  0999 V2000
   -1.1531    0.0793   -0.4424 C   0  0  0  0  0  0  0  0  0  0  0  0
    0.0914    0.7082   -0.6881 O   0  0  0  0  0  0  0  0  0  0  0  0
    1.1633   -0.0003   -0.0935 C   0  0  0  0  0  0  0  0  0  0  0  0
   -1.3717    0.0208    0.6404 H   0  0  0  0  0  0  0  0  0  0  0  0
   -1.1792   -0.9456   -0.8580 H   0  0  0  0  0  0  0  0  0  0  0  0
   -1.9262    0.6833   -0.9313 H   0  0  0  0  0  0  0  0  0  0  0  0
    2.0846    0.5456   -0.3271 H   0  0  0  0  0  0  0  0  0  0  0  0
    1.0491   -0.0624    1.0051 H   0  0  0  0  0  0  0  0  0  0  0  0
    1.2417   -1.0287   -0.4934 H   0  0  0  0  0  0  0  0  0  0  0  0
  1  4  1  0  0  0  0
  2  1  1  0  0  0  0
  2  3  1  0  0  0  0
  3  8  1  0  0  0  0
  5  1  1  0  0  0  0
  6  1  1  0  0  0  0
  7  3  1  0  0  0  0
  9  3  1  0  0  0  0
M  END
>  <Charge>
0.0

>  <InChI>
1/C2H6O/c1-3-2/h1-2H3

>  <Molecular Formula>
C_{2}H_{6}O

>  <Name>
DIMETHYL ETHER

>  <SMILES>
COC

>  <logK ((\xb1)-2-BUTANOL)>
1.54

>  <logK (1-OCTANOL)>
1.37

>  <logK (1-PROPANOL)>
1.54

>  <logK (2-METHYLBUTAN-1-OL)>
1.5

>  <logK (2-PENTANOL)>
1.5

>  <logK (3-METHYLBUTAN-1-OL)>
1.457

>  <logK (ALLYL ALCOHOL)>
1.76

>  <logK (BROMOBENZENE)>
1.54

>  <logK (CHLOROBENZENE)>
1.6

>  <logK (DIMETHYLFORMAMIDE)>
1.56

>  <logK (HEXADECANE)>
1.09

>  <logK (HEXANE)>
1.313

>  <logK (IODOBENZENE)>
1.49

>  <logK (ISOBUTANOL)>
1.54

>  <logK (ISOPROPANOL)>
1.56

>  <logK (M-XYLENE)>
1.501

>  <logK (METHANOL)>
1.69

>  <logK (METHYL ACETATE)>
1.714

>  <logK (N-BUTANOL)>
1.5

>  <logK (O-XYLENE)>
1.493

>  <logK (P-XYLENE)>
1.488

>  <logK (PENTAN-3-OL)>
1.6

>  <logK (PENTANOL)>
1.45

>  <logK (TERT-AMYL ALCOHOL)>
1.63

>  <logK (TERT-BUTANOL)>
1.65

>  <logK (TETRAHYDROPYRAN)>
1.62

>  <logK (TOLUENE)>
1.586

>  <mean polarizability>
5.16

>  <dipole moment>
1.17305943389

$$$$
047
 OpenBabel08101817183D

 15 14  0  0  0  0  0  0  0  0999 V2000
   -2.3824   -0.3868    0.6296 C   0  0  0  0  0  0  0  0  0  0  0  0
   -1.1845    0.4275    0.1818 C   0  0  0  0  0  0  0  0  0  0  0  0
    0.0022   -0.2966    0.4825 O   0  0  0  0  0  0  0  0  0  0  0  0
    1.1784    0.4013    0.0917 C   0  0  0  0  0  0  0  0  0  0  0  0
    2.3886   -0.4396    0.4480 C   0  0  0  0  0  0  0  0  0  0  0  0
   -2.3412   -0.5762    1.7100 H   0  0  0  0  0  0  0  0  0  0  0  0
   -3.3131    0.1521    0.4077 H   0  0  0  0  0  0  0  0  0  0  0  0
   -2.4103   -1.3538    0.1111 H   0  0  0  0  0  0  0  0  0  0  0  0
   -1.1654    1.4098    0.6948 H   0  0  0  0  0  0  0  0  0  0  0  0
   -1.2348    0.6310   -0.9065 H   0  0  0  0  0  0  0  0  0  0  0  0
    1.1502    0.6044   -0.9975 H   0  0  0  0  0  0  0  0  0  0  0  0
    1.2201    1.3834    0.6038 H   0  0  0  0  0  0  0  0  0  0  0  0
    2.4253   -0.6289    1.5286 H   0  0  0  0  0  0  0  0  0  0  0  0
    2.3556   -1.4066   -0.0702 H   0  0  0  0  0  0  0  0  0  0  0  0
    3.3114    0.0788    0.1557 H   0  0  0  0  0  0  0  0  0  0  0  0
  1  6  1  0  0  0  0
  2  3  1  0  0  0  0
  2  1  1  0  0  0  0
  2  9  1  0  0  0  0
  4  5  1  0  0  0  0
  4  3  1  0  0  0  0
  4 12  1  0  0  0  0
  5 13  1  0  0  0  0
  7  1  1  0  0  0  0
  8  1  1  0  0  0  0
 10  2  1  0  0  0  0
 11  4  1  0  0  0  0
 14  5  1  0  0  0  0
 15  5  1  0  0  0  0
M  END
>  <Charge>
0.0

>  <InChI>
1/C4H10O/c1-3-5-4-2/h3-4H2,1-2H3

>  <Molecular Formula>
C_{4}H_{10}O

>  <Name>
DIETHYL ETHER

>  <SMILES>
CCOCC

>  <logK (1,5-DIMETHYL-2-PYRROLIDINONE)>
2.047

>  <logK (1-CHLOROBUTANE)>
2.487

>  <logK (1-ETHYL-2-PYRROLIDINONE)>
2.024

>  <logK (1-HEXADECENE)>
2.012

>  <logK (1-METHYL-2-PIPERIDINONE)>
2.03

>  <logK (1-OCTANOL)>
2.19

>  <logK (5,8,11,14-TETRAOXAOCTADECANE)>
2.16

>  <logK (ACETONE)>
2.38

>  <logK (BROMOBENZENE)>
2.81

>  <logK (CARBON TETRACHLORIDE)>
2.591

>  <logK (CHLOROBENZENE)>
2.96

>  <logK (CHLOROFORM)>
3.05

>  <logK (DECAN-1-OL)>
2.15

>  <logK (DIBUTYL ETHER)>
2.43

>  <logK (DICHLOROETHANE)>
2.55

>  <logK (DICHLOROMETHANE)>
2.868

>  <logK (DIETHYL ETHER)>
2.64

>  <logK (DIETHYLENE GLYCOL DIBUTYL ETHER)>
2.211

>  <logK (DIMETHYLFORMAMIDE)>
2.06

>  <logK (EPSILON-CAPROLACTONE)>
2.004

>  <logK (ETHYLBENZOATE)>
2.276

>  <logK (FORMAMIDE)>
1.49

>  <logK (HEXADECANE)>
2.061

>  <logK (M-XYLENE)>
2.41

>  <logK (METHANOL)>
2.39

>  <logK (N,N-DIBUTYLFORMAMID)>
2.11

>  <logK (N,N-DIETHYLACETAMIDE)>
2.16

>  <logK (N,N-DIMETHYLACETAMIDE)>
2.06

>  <logK (N-BUTANOL)>
2.27

>  <logK (N-ETHYLACETAMIDE)>
2.07

>  <logK (N-ETHYLFORMAMIDE)>
2.04

>  <logK (N-METHYLACETAMIDE)>
2.03

>  <logK (N-METHYLFORMAMIDE)>
1.95

>  <logK (N-METHYLPYRROLIDONE)>
2.03

>  <logK (OCTANE)>
2.235

>  <logK (PENTANOL)>
2.29

>  <logK (PHENYLAMINE)>
2.767

>  <logK (PROPYLENE CARBONATE)>
1.89

>  <logK (SULFOLANE)>
1.74

>  <logK (TETRAETHYLENE GLYCOL DIMETHYL ETHER)>
1.966

>  <logK (TETRAHYDROFURAN)>
2.57

>  <logK (TOLUENE)>
2.44

>  <mean polarizability>
9.06

>  <dipole moment>
1.01353336755

>  <Formula>
C4H10O

$$$$
048
 OpenBabel08101817183D

 21 20  0  0  0  0  0  0  0  0999 V2000
    3.3277    0.4938   -0.1349 C   0  0  0  0  0  0  0  0  0  0  0  0
    1.8103    0.6011   -0.2910 C   0  0  0  0  0  0  0  0  0  0  0  0
    1.0735   -0.2817    0.7175 C   0  0  0  0  0  0  0  0  0  0  0  0
   -0.3445   -0.1598    0.6825 O   0  0  0  0  0  0  0  0  0  0  0  0
   -0.9587   -0.8560   -0.3981 C   0  0  0  0  0  0  0  0  0  0  0  0
   -2.4700   -0.7464   -0.2641 C   0  0  0  0  0  0  0  0  0  0  0  0
   -2.9948    0.6825   -0.4036 C   0  0  0  0  0  0  0  0  0  0  0  0
    3.6468    0.7885    0.8754 H   0  0  0  0  0  0  0  0  0  0  0  0
    3.6772   -0.5348   -0.3052 H   0  0  0  0  0  0  0  0  0  0  0  0
    3.8497    1.1432   -0.8499 H   0  0  0  0  0  0  0  0  0  0  0  0
    1.5239    0.3210   -1.3159 H   0  0  0  0  0  0  0  0  0  0  0  0
    1.4841    1.6419   -0.1443 H   0  0  0  0  0  0  0  0  0  0  0  0
    1.3675    0.0048    1.7389 H   0  0  0  0  0  0  0  0  0  0  0  0
    1.3644   -1.3423    0.5757 H   0  0  0  0  0  0  0  0  0  0  0  0
   -0.6382   -0.4350   -1.3709 H   0  0  0  0  0  0  0  0  0  0  0  0
   -0.6460   -1.9188   -0.3778 H   0  0  0  0  0  0  0  0  0  0  0  0
   -2.9203   -1.3917   -1.0347 H   0  0  0  0  0  0  0  0  0  0  0  0
   -2.7654   -1.1657    0.7098 H   0  0  0  0  0  0  0  0  0  0  0  0
   -2.5718    1.3334    0.3716 H   0  0  0  0  0  0  0  0  0  0  0  0
   -4.0889    0.7142   -0.3146 H   0  0  0  0  0  0  0  0  0  0  0  0
   -2.7266    1.1078   -1.3819 H   0  0  0  0  0  0  0  0  0  0  0  0
  1  8  1  0  0  0  0
  2 12  1  0  0  0  0
  2  1  1  0  0  0  0
  2  3  1  0  0  0  0
  3 13  1  0  0  0  0
  4  3  1  0  0  0  0
  5 16  1  0  0  0  0
  5  6  1  0  0  0  0
  5  4  1  0  0  0  0
  6 18  1  0  0  0  0
  7 20  1  0  0  0  0
  7  6  1  0  0  0  0
  7 19  1  0  0  0  0
  9  1  1  0  0  0  0
 10  1  1  0  0  0  0
 11  2  1  0  0  0  0
 14  3  1  0  0  0  0
 15  5  1  0  0  0  0
 17  6  1  0  0  0  0
 21  7  1  0  0  0  0
M  END
>  <Charge>
0.0

>  <InChI>
1/C6H14O/c1-3-5-7-6-4-2/h3-6H2,1-2H3

>  <Molecular Formula>
C_{6}H_{14}O

>  <Name>
PROPYL ETHER

>  <SMILES>
CCCOCCC

>  <logK ((\xb1)-2-BUTANOL)>
3.04

>  <logK (1-CHLOROBUTANE)>
3.429

>  <logK (1-HEXADECENE)>
2.934

>  <logK (1-OCTANOL)>
2.97

>  <logK (BUTANONE)>
3.2

>  <logK (CARBON TETRACHLORIDE)>
3.54

>  <logK (DICHLOROMETHANE)>
3.684

>  <logK (DIMETHYLFORMAMIDE)>
2.65

>  <logK (HEXADECANE)>
2.989

>  <logK (HEXANOL)>
3.02

>  <logK (ISOBUTANOL)>
3.06

>  <logK (ISOPROPANOL)>
2.95

>  <logK (METHANOL)>
2.89

>  <logK (N-BUTANOL)>
3.03

>  <logK (PROPYL ETHER)>
3.329

>  <logK (TERT-BUTANOL)>
3.03

>  <mean polarizability>
12.71

>  <dipole moment>
1.10770441236

>  <Formula>
C6H14O

$$$$
049
 OpenBabel08101817183D

 21 20  0  0  0  0  0  0  0  0999 V2000
   -1.2797   -1.7102    0.2271 C   0  0  0  0  0  0  0  0  0  0  0  0
   -1.2413   -0.5139   -0.7267 C   0  0  0  0  0  0  0  0  0  0  0  0
   -2.0605    0.6710   -0.2098 C   0  0  0  0  0  0  0  0  0  0  0  0
    0.0962   -0.1440   -1.1009 O   0  0  0  0  0  0  0  0  0  0  0  0
    0.9691    0.3338   -0.0591 C   0  0  0  0  0  0  0  0  0  0  0  0
    2.1682   -0.6059    0.0461 C   0  0  0  0  0  0  0  0  0  0  0  0
    1.3906    1.7639   -0.3895 C   0  0  0  0  0  0  0  0  0  0  0  0
   -2.3161   -2.0439    0.3754 H   0  0  0  0  0  0  0  0  0  0  0  0
   -0.7039   -2.5490   -0.1841 H   0  0  0  0  0  0  0  0  0  0  0  0
   -0.8712   -1.4587    1.2162 H   0  0  0  0  0  0  0  0  0  0  0  0
   -1.6738   -0.8321   -1.6880 H   0  0  0  0  0  0  0  0  0  0  0  0
   -1.6888    1.0345    0.7588 H   0  0  0  0  0  0  0  0  0  0  0  0
   -2.0318    1.5010   -0.9271 H   0  0  0  0  0  0  0  0  0  0  0  0
   -3.1091    0.3743   -0.0684 H   0  0  0  0  0  0  0  0  0  0  0  0
    0.4333    0.3352    0.9050 H   0  0  0  0  0  0  0  0  0  0  0  0
    2.6945   -0.6510   -0.9173 H   0  0  0  0  0  0  0  0  0  0  0  0
    1.8491   -1.6224    0.3084 H   0  0  0  0  0  0  0  0  0  0  0  0
    2.8764   -0.2557    0.8103 H   0  0  0  0  0  0  0  0  0  0  0  0
    2.0859    2.1538    0.3672 H   0  0  0  0  0  0  0  0  0  0  0  0
    1.8934    1.7901   -1.3662 H   0  0  0  0  0  0  0  0  0  0  0  0
    0.5196    2.4295   -0.4364 H   0  0  0  0  0  0  0  0  0  0  0  0
  1  8  1  0  0  0  0
  1 10  1  0  0  0  0
  2  3  1  0  0  0  0
  2  1  1  0  0  0  0
  3 14  1  0  0  0  0
  3 12  1  0  0  0  0
  4  2  1  0  0  0  0
  4  5  1  0  0  0  0
  5  6  1  0  0  0  0
  5 15  1  0  0  0  0
  6 17  1  0  0  0  0
  6 18  1  0  0  0  0
  7  5  1  0  0  0  0
  7 19  1  0  0  0  0
  9  1  1  0  0  0  0
 11  2  1  0  0  0  0
 13  3  1  0  0  0  0
 16  6  1  0  0  0  0
 20  7  1  0  0  0  0
 21  7  1  0  0  0  0
M  END
>  <Charge>
0.0

>  <InChI>
1/C6H14O/c1-5(2)7-6(3)4/h5-6H,1-4H3

>  <Molecular Formula>
C_{6}H_{14}O

>  <Name>
DIISOPROPYL ETHER

>  <SMILES>
CC(C)OC(C)C

>  <logK ((\xb1)-1,2-PROPANEDIOL)>
1.926

>  <logK ((\xb1)-2-BUTANOL)>
2.75

>  <logK (1,5-DIMETHYL-2-PYRROLIDINONE)>
2.387

>  <logK (1-CHLOROBUTANE)>
3.023

>  <logK (1-ETHYL-2-PYRROLIDINONE)>
2.363

>  <logK (1-METHYL-2-PIPERIDINONE)>
2.4

>  <logK (1-OCTANOL)>
2.66

>  <logK (1-PROPANOL)>
2.78

>  <logK (2,2,4-TRIMETHYLPENTANE)>
2.773

>  <logK (5,8,11,14-TETRAOXAOCTADECANE)>
2.595

>  <logK (BUTANONE)>
2.86

>  <logK (CARBON TETRACHLORIDE)>
3.1

>  <logK (CHLOROFORM)>
3.62

>  <logK (DECAN-1-OL)>
2.517

>  <logK (DIETHYLENE GLYCOL DIBUTYL ETHER)>
2.656

>  <logK (DIISOPROPYL ETHER)>
2.939

>  <logK (DIMETHYLFORMAMIDE)>
2.34

>  <logK (EPSILON-CAPROLACTONE)>
2.321

>  <logK (ETHYLBENZOATE)>
2.707

>  <logK (HEXADECANE)>
2.559

>  <logK (METHANOL)>
2.8

>  <logK (N,N-DIBUTYLFORMAMID)>
2.55

>  <logK (N,N-DIETHYLACETAMIDE)>
2.57

>  <logK (N,N-DIMETHYLACETAMIDE)>
2.5

>  <logK (N-BUTANOL)>
2.75

>  <logK (N-ETHYLACETAMIDE)>
2.44

>  <logK (N-ETHYLFORMAMIDE)>
2.37

>  <logK (N-METHYLACETAMIDE)>
2.38

>  <logK (N-METHYLFORMAMIDE)>
2.23

>  <logK (OCTANE)>
2.812

>  <logK (PROPYLENE CARBONATE)>
2.13

>  <logK (SULFOLANE)>
1.946

>  <logK (TETRAETHYLENE GLYCOL DIMETHYL ETHER)>
2.352

>  <logK (TOLUENE)>
2.92

>  <experimental polarizability source>
@Article{Bosque2002, Title = {Polarizabilities of Solvents from the Chemical Composition}, Author = {Bosque, Ramon and Sales, Joaquim}, Journal = {Journal of Chemical Information and Computer Sciences}, Year = {2002}, Note = {PMID: 12377003}, Number = {5}, Pages = {1154-1163}, Volume = {42}, Doi = {10.1021/ci025528x}, Url = {https://doi.org/10.1021/ci025528x}}

>  <Formula>
C6H14O

>  <dipole moment>
1.25509761604

>  <mean polarizability>
12.6

$$$$
050
 OpenBabel08101817183D

 27 26  0  0  0  0  0  0  0  0999 V2000
    4.9663   -0.0499   -0.0205 C   0  0  0  0  0  0  0  0  0  0  0  0
    3.6682    0.6819    0.3207 C   0  0  0  0  0  0  0  0  0  0  0  0
    2.4190   -0.1375   -0.0105 C   0  0  0  0  0  0  0  0  0  0  0  0
    1.1301    0.5921    0.3305 C   0  0  0  0  0  0  0  0  0  0  0  0
    0.0224   -0.2322   -0.0055 O   0  0  0  0  0  0  0  0  0  0  0  0
   -1.2242    0.3853    0.2845 C   0  0  0  0  0  0  0  0  0  0  0  0
   -2.3521   -0.5571   -0.1026 C   0  0  0  0  0  0  0  0  0  0  0  0
   -3.7370    0.0310    0.1759 C   0  0  0  0  0  0  0  0  0  0  0  0
   -4.8732   -0.9150   -0.2129 C   0  0  0  0  0  0  0  0  0  0  0  0
    5.8481    0.5568    0.2255 H   0  0  0  0  0  0  0  0  0  0  0  0
    5.0156   -0.2916   -1.0918 H   0  0  0  0  0  0  0  0  0  0  0  0
    5.0463   -0.9955    0.5346 H   0  0  0  0  0  0  0  0  0  0  0  0
    3.6631    0.9407    1.3921 H   0  0  0  0  0  0  0  0  0  0  0  0
    3.6327    1.6399   -0.2232 H   0  0  0  0  0  0  0  0  0  0  0  0
    2.4409   -1.0929    0.5370 H   0  0  0  0  0  0  0  0  0  0  0  0
    2.4099   -0.3911   -1.0822 H   0  0  0  0  0  0  0  0  0  0  0  0
    1.0712    1.5509   -0.2245 H   0  0  0  0  0  0  0  0  0  0  0  0
    1.1026    0.8422    1.4110 H   0  0  0  0  0  0  0  0  0  0  0  0
   -1.2824    0.6335    1.3642 H   0  0  0  0  0  0  0  0  0  0  0  0
   -1.3123    1.3411   -0.2717 H   0  0  0  0  0  0  0  0  0  0  0  0
   -2.2284   -1.5029    0.4481 H   0  0  0  0  0  0  0  0  0  0  0  0
   -2.2570   -0.8030   -1.1720 H   0  0  0  0  0  0  0  0  0  0  0  0
   -3.8477    0.9820   -0.3702 H   0  0  0  0  0  0  0  0  0  0  0  0
   -3.8193    0.2837    1.2455 H   0  0  0  0  0  0  0  0  0  0  0  0
   -5.8562   -0.4722   -0.0040 H   0  0  0  0  0  0  0  0  0  0  0  0
   -4.8377   -1.1584   -1.2845 H   0  0  0  0  0  0  0  0  0  0  0  0
   -4.8088   -1.8618    0.3422 H   0  0  0  0  0  0  0  0  0  0  0  0
  1 10  1  0  0  0  0
  1  2  1  0  0  0  0
  1 12  1  0  0  0  0
  2 13  1  0  0  0  0
  3  2  1  0  0  0  0
  3  4  1  0  0  0  0
  3 15  1  0  0  0  0
  4 18  1  0  0  0  0
  5  6  1  0  0  0  0
  5  4  1  0  0  0  0
  6 19  1  0  0  0  0
  7  8  1  0  0  0  0
  7  6  1  0  0  0  0
  7 21  1  0  0  0  0
  8 24  1  0  0  0  0
  9 25  1  0  0  0  0
  9  8  1  0  0  0  0
  9 27  1  0  0  0  0
 11  1  1  0  0  0  0
 14  2  1  0  0  0  0
 16  3  1  0  0  0  0
 17  4  1  0  0  0  0
 20  6  1  0  0  0  0
 22  7  1  0  0  0  0
 23  8  1  0  0  0  0
 26  9  1  0  0  0  0
M  END
>  <Charge>
0.0

>  <InChI>
1/C8H18O/c1-3-5-7-9-8-6-4-2/h3-8H2,1-2H3

>  <Molecular Formula>
C_{8}H_{18}O

>  <Name>
DIBUTYL ETHER

>  <SMILES>
CCCCOCCCC

>  <logK (1-OCTANOL)>
3.89

>  <logK (CARBON TETRACHLORIDE)>
4.6

>  <logK (DIBUTYL ETHER)>
4.02

>  <logK (DICHLOROETHANE)>
4.38

>  <logK (HEXADECANE)>
4.001

>  <logK (HEXANE)>
4.334

>  <logK (METHANOL)>
3.64

>  <logK (N-BUTANOL)>
3.92

>  <logK (OCTANE)>
4.24

>  <logK (TETRAHYDROFURAN)>
4.492

>  <logK (TOLUENE)>
4.368

>  <Formula>
C8H18O

>  <mean polarizability>
16.81

>  <dipole moment>
0.973609920041

$$$$
051
 OpenBabel08101817183D

 21 20  0  0  0  0  0  0  0  0999 V2000
    2.8889   -0.3943    0.1150 C   0  0  0  0  0  0  0  0  0  0  0  0
    1.4324   -0.7363   -0.1447 C   0  0  0  0  0  0  0  0  0  0  0  0
    0.6548    0.4089    0.1894 O   0  0  0  0  0  0  0  0  0  0  0  0
   -0.7841    0.3135    0.0409 C   0  0  0  0  0  0  0  0  0  0  0  0
   -1.3650   -0.7602    0.9717 C   0  0  0  0  0  0  0  0  0  0  0  0
   -1.1734    0.0397   -1.4186 C   0  0  0  0  0  0  0  0  0  0  0  0
   -1.2755    1.6984    0.4655 C   0  0  0  0  0  0  0  0  0  0  0  0
    3.5309   -1.2510   -0.1306 H   0  0  0  0  0  0  0  0  0  0  0  0
    3.2016    0.4609   -0.4981 H   0  0  0  0  0  0  0  0  0  0  0  0
    3.0441   -0.1347    1.1703 H   0  0  0  0  0  0  0  0  0  0  0  0
    1.1354   -1.6087    0.4654 H   0  0  0  0  0  0  0  0  0  0  0  0
    1.2940   -1.0122   -1.2063 H   0  0  0  0  0  0  0  0  0  0  0  0
   -1.0343   -0.5882    2.0048 H   0  0  0  0  0  0  0  0  0  0  0  0
   -2.4627   -0.7249    0.9516 H   0  0  0  0  0  0  0  0  0  0  0  0
   -1.0642   -1.7729    0.6721 H   0  0  0  0  0  0  0  0  0  0  0  0
   -0.7112    0.7824   -2.0827 H   0  0  0  0  0  0  0  0  0  0  0  0
   -0.8657   -0.9620   -1.7463 H   0  0  0  0  0  0  0  0  0  0  0  0
   -2.2635    0.1033   -1.5374 H   0  0  0  0  0  0  0  0  0  0  0  0
   -0.8447    2.4701   -0.1856 H   0  0  0  0  0  0  0  0  0  0  0  0
   -2.3699    1.7588    0.4056 H   0  0  0  0  0  0  0  0  0  0  0  0
   -0.9678    1.9094    1.4979 H   0  0  0  0  0  0  0  0  0  0  0  0
  1 10  1  0  0  0  0
  2  1  1  0  0  0  0
  2  3  1  0  0  0  0
  2 11  1  0  0  0  0
  4  3  1  0  0  0  0
  4  7  1  0  0  0  0
  4  5  1  0  0  0  0
  5 13  1  0  0  0  0
  6  4  1  0  0  0  0
  7 21  1  0  0  0  0
  8  1  1  0  0  0  0
  9  1  1  0  0  0  0
 12  2  1  0  0  0  0
 14  5  1  0  0  0  0
 15  5  1  0  0  0  0
 16  6  1  0  0  0  0
 17  6  1  0  0  0  0
 18  6  1  0  0  0  0
 19  7  1  0  0  0  0
 20  7  1  0  0  0  0
M  END
>  <Charge>
0.0

>  <InChI>
1/C6H14O/c1-5-7-6(2,3)4/h5H2,1-4H3

>  <Molecular Formula>
C_{6}H_{14}O

>  <Name>
ETBE

>  <SMILES>
CCOC(C)(C)C

>  <logK (1,5-DIMETHYL-2-PYRROLIDINONE)>
2.521

>  <logK (1-ETHYL-2-PYRROLIDINONE)>
2.509

>  <logK (1-METHYL-2-PIPERIDINONE)>
2.52

>  <logK (1-OCTANOL)>
2.69

>  <logK (DIETHYL ETHER)>
3.25

>  <logK (DIMETHYLFORMAMIDE)>
2.43

>  <logK (EPSILON-CAPROLACTONE)>
2.435

>  <logK (ETBE)>
3.027

>  <logK (ETHYLBENZOATE)>
2.823

>  <logK (HEPTANE)>
2.92

>  <logK (HEXADECANE)>
2.58

>  <logK (HEXANE)>
2.98

>  <logK (METHANOL)>
2.98

>  <logK (N,N-DIBUTYLFORMAMID)>
2.64

>  <logK (N,N-DIETHYLACETAMIDE)>
2.68

>  <logK (N,N-DIMETHYLACETAMIDE)>
2.59

>  <logK (N-ETHYLACETAMIDE)>
2.56

>  <logK (N-ETHYLFORMAMIDE)>
2.48

>  <logK (N-METHYLACETAMIDE)>
2.49

>  <logK (N-METHYLFORMAMIDE)>
2.35

>  <logK (PROPYLENE CARBONATE)>
2.24

>  <logK (SULFOLANE)>
2.077

>  <logK (TOLUENE)>
3.01

>  <Formula>
C6H14O

>  <mean polarizability>
12.63

>  <dipole moment>
1.12967190353

$$$$
052
 OpenBabel08101817183D

 21 20  0  0  0  0  0  0  0  0999 V2000
   -2.0785   -0.6244   -0.6618 C   0  0  0  0  0  0  0  0  0  0  0  0
   -0.7635   -0.9098    0.0676 C   0  0  0  0  0  0  0  0  0  0  0  0
    0.1469    0.3099    0.3310 C   0  0  0  0  0  0  0  0  0  0  0  0
    0.5801    0.9969   -0.9701 C   0  0  0  0  0  0  0  0  0  0  0  0
   -0.5299    1.3176    1.2607 C   0  0  0  0  0  0  0  0  0  0  0  0
    1.3032   -0.1168    1.1026 O   0  0  0  0  0  0  0  0  0  0  0  0
    2.2458   -0.9579    0.4601 C   0  0  0  0  0  0  0  0  0  0  0  0
   -1.9103   -0.2087   -1.6645 H   0  0  0  0  0  0  0  0  0  0  0  0
   -2.6539   -1.5516   -0.7872 H   0  0  0  0  0  0  0  0  0  0  0  0
   -2.7134    0.0798   -0.1081 H   0  0  0  0  0  0  0  0  0  0  0  0
   -0.1962   -1.6508   -0.5162 H   0  0  0  0  0  0  0  0  0  0  0  0
   -0.9720   -1.3743    1.0436 H   0  0  0  0  0  0  0  0  0  0  0  0
    1.3285    1.7714   -0.7554 H   0  0  0  0  0  0  0  0  0  0  0  0
    1.0084    0.2872   -1.6909 H   0  0  0  0  0  0  0  0  0  0  0  0
   -0.2775    1.4813   -1.4537 H   0  0  0  0  0  0  0  0  0  0  0  0
    0.1623    2.1388    1.4865 H   0  0  0  0  0  0  0  0  0  0  0  0
   -0.8073    0.8338    2.2065 H   0  0  0  0  0  0  0  0  0  0  0  0
   -1.4323    1.7414    0.8034 H   0  0  0  0  0  0  0  0  0  0  0  0
    3.0064   -1.1903    1.2156 H   0  0  0  0  0  0  0  0  0  0  0  0
    2.7439   -0.4644   -0.3922 H   0  0  0  0  0  0  0  0  0  0  0  0
    1.8094   -1.9090    0.1091 H   0  0  0  0  0  0  0  0  0  0  0  0
  1 10  1  0  0  0  0
  1  2  1  0  0  0  0
  2  3  1  0  0  0  0
  2 12  1  0  0  0  0
  3  6  1  0  0  0  0
  3  5  1  0  0  0  0
  4 13  1  0  0  0  0
  4  3  1  0  0  0  0
  5 16  1  0  0  0  0
  5 17  1  0  0  0  0
  7  6  1  0  0  0  0
  7 19  1  0  0  0  0
  8  1  1  0  0  0  0
  9  1  1  0  0  0  0
 11  2  1  0  0  0  0
 14  4  1  0  0  0  0
 15  4  1  0  0  0  0
 18  5  1  0  0  0  0
 20  7  1  0  0  0  0
 21  7  1  0  0  0  0
M  END
>  <Charge>
0.0

>  <InChI>
1/C6H14O/c1-5-6(2,3)7-4/h5H2,1-4H3

>  <Molecular Formula>
C_{6}H_{14}O

>  <Name>
TERT-AMYL METHYL ETHER

>  <SMILES>
CCC(C)(C)OC

>  <logK (1,5-DIMETHYL-2-PYRROLIDINONE)>
2.841

>  <logK (1-ETHYL-2-PYRROLIDINONE)>
2.816

>  <logK (1-METHYL-2-PIPERIDINONE)>
2.83

>  <logK (1-OCTANOL)>
2.98

>  <logK (2,2,4-TRIMETHYLPENTANE)>
3.109

>  <logK (DECANE)>
3.052

>  <logK (DIMETHYLFORMAMIDE)>
2.77

>  <logK (EPSILON-CAPROLACTONE)>
2.742

>  <logK (ETHYLBENZOATE)>
3.103

>  <logK (HEPTANE)>
3.108

>  <logK (HEXADECANE)>
2.83

>  <logK (HEXANE)>
3.275

>  <logK (METHANOL)>
3.12

>  <logK (METHYLCYCLOHEXANE)>
3.23

>  <logK (N,N-DIBUTYLFORMAMID)>
3.01

>  <logK (N,N-DIETHYLACETAMIDE)>
2.96

>  <logK (N,N-DIMETHYLACETAMIDE)>
2.87

>  <logK (N-ETHYLACETAMIDE)>
2.83

>  <logK (N-ETHYLFORMAMIDE)>
2.78

>  <logK (N-METHYLACETAMIDE)>
2.75

>  <logK (N-METHYLFORMAMIDE)>
2.65

>  <logK (PROPYLENE CARBONATE)>
2.59

>  <logK (SULFOLANE)>
2.422

>  <logK (TERT-AMYL METHYL ETHER)>
3.268

>  <logK (TERT-BUTANOL)>
3.09

>  <logK (TOLUENE)>
3.3

>  <experimental polarizability source>
@Article{Bosque2002, Title = {Polarizabilities of Solvents from the Chemical Composition}, Author = {Bosque, Ramon and Sales, Joaquim}, Journal = {Journal of Chemical Information and Computer Sciences}, Year = {2002}, Note = {PMID: 12377003}, Number = {5}, Pages = {1154-1163}, Volume = {42}, Doi = {10.1021/ci025528x}, Url = {https://doi.org/10.1021/ci025528x}}

>  <Formula>
C6H14O

>  <mean polarizability>
12.43

>  <dipole moment>
1.21682738102

$$$$
053
 OpenBabel08101817183D

 18 17  0  0  0  0  0  0  0  0999 V2000
   -0.8491    1.5955   -0.4719 C   0  0  0  0  0  0  0  0  0  0  0  0
   -0.2437    0.2499   -0.0711 C   0  0  0  0  0  0  0  0  0  0  0  0
   -0.7941   -0.1952    1.2907 C   0  0  0  0  0  0  0  0  0  0  0  0
   -0.5345   -0.8046   -1.1474 C   0  0  0  0  0  0  0  0  0  0  0  0
    1.1763    0.5338    0.0153 O   0  0  0  0  0  0  0  0  0  0  0  0
    2.0346   -0.5552    0.3065 C   0  0  0  0  0  0  0  0  0  0  0  0
   -0.5966    2.3604    0.2736 H   0  0  0  0  0  0  0  0  0  0  0  0
   -1.9419    1.5243   -0.5456 H   0  0  0  0  0  0  0  0  0  0  0  0
   -0.4513    1.9176   -1.4427 H   0  0  0  0  0  0  0  0  0  0  0  0
   -0.5631    0.5536    2.0594 H   0  0  0  0  0  0  0  0  0  0  0  0
   -0.3761   -1.1603    1.6060 H   0  0  0  0  0  0  0  0  0  0  0  0
   -1.8846   -0.3126    1.2391 H   0  0  0  0  0  0  0  0  0  0  0  0
   -1.6176   -0.8920   -1.3049 H   0  0  0  0  0  0  0  0  0  0  0  0
   -0.0706   -0.5172   -2.1004 H   0  0  0  0  0  0  0  0  0  0  0  0
   -0.1632   -1.7978   -0.8624 H   0  0  0  0  0  0  0  0  0  0  0  0
    1.8024   -1.0384    1.2713 H   0  0  0  0  0  0  0  0  0  0  0  0
    3.0461   -0.1361    0.3682 H   0  0  0  0  0  0  0  0  0  0  0  0
    2.0271   -1.3257   -0.4836 H   0  0  0  0  0  0  0  0  0  0  0  0
  1  2  1  0  0  0  0
  1  7  1  0  0  0  0
  2  5  1  0  0  0  0
  2  3  1  0  0  0  0
  3 11  1  0  0  0  0
  3 10  1  0  0  0  0
  4 15  1  0  0  0  0
  4  2  1  0  0  0  0
  5  6  1  0  0  0  0
  6 17  1  0  0  0  0
  6 16  1  0  0  0  0
  8  1  1  0  0  0  0
  9  1  1  0  0  0  0
 12  3  1  0  0  0  0
 13  4  1  0  0  0  0
 14  4  1  0  0  0  0
 18  6  1  0  0  0  0
M  END
>  <Charge>
0.0

>  <InChI>
1/C5H12O/c1-5(2,3)6-4/h1-4H3

>  <Molecular Formula>
C_{5}H_{12}O

>  <Name>
METHYL TERT-BUTYL ETHER

>  <SMILES>
CC(C)(C)OC

>  <logK (1,5-DIMETHYL-2-PYRROLIDINONE)>
2.37

>  <logK (1-ETHYL-2-PYRROLIDINONE)>
2.345

>  <logK (1-METHYL-2-PIPERIDINONE)>
2.36

>  <logK (1-OCTANOL)>
2.58

>  <logK (2,2,4-TRIMETHYLPENTANE)>
2.623

>  <logK (5,8,11,14-TETRAOXAOCTADECANE)>
2.465

>  <logK (CARBON TETRACHLORIDE)>
2.894

>  <logK (CHLOROFORM)>
3.58

>  <logK (DECAN-1-OL)>
2.734

>  <logK (DECANE)>
2.548

>  <logK (DIETHYLENE GLYCOL DIBUTYL ETHER)>
2.527

>  <logK (DIMETHYLFORMAMIDE)>
2.33

>  <logK (EPSILON-CAPROLACTONE)>
2.312

>  <logK (ETHYLBENZOATE)>
2.589

>  <logK (HEPTANE)>
2.597

>  <logK (HEXADECANE)>
2.29

>  <logK (HEXANOL)>
2.6

>  <logK (METHANOL)>
2.77

>  <logK (METHYL TERT-BUTYL ETHER)>
2.79

>  <logK (METHYLCYCLOHEXANE)>
2.61

>  <logK (N,N-DIBUTYLFORMAMID)>
2.45

>  <logK (N,N-DIETHYLACETAMIDE)>
2.49

>  <logK (N,N-DIMETHYLACETAMIDE)>
2.41

>  <logK (N-ETHYLACETAMIDE)>
2.39

>  <logK (N-ETHYLFORMAMIDE)>
2.35

>  <logK (N-METHYLACETAMIDE)>
2.29

>  <logK (N-METHYLFORMAMIDE)>
2.26

>  <logK (OCTANE)>
2.572

>  <logK (PROPYLENE CARBONATE)>
2.24

>  <logK (SULFOLANE)>
2.025

>  <logK (TERT-BUTANOL)>
2.79

>  <logK (TETRAETHYLENE GLYCOL DIMETHYL ETHER)>
2.282

>  <logK (TOLUENE)>
2.69

>  <mean polarizability>
10.64

>  <dipole moment>
1.1989827356

>  <Formula>
C5H12O

$$$$
054
 OpenBabel08101817183D

 13 13  0  0  0  0  0  0  0  0999 V2000
   -0.3845   -0.9440   -0.3465 C   0  0  0  0  0  0  0  0  0  0  0  0
    0.9582   -0.4464    0.2039 C   0  0  0  0  0  0  0  0  0  0  0  0
    0.8309    1.0648    0.0086 C   0  0  0  0  0  0  0  0  0  0  0  0
   -0.5680    1.3764    0.1412 O   0  0  0  0  0  0  0  0  0  0  0  0
   -1.3361    0.1595    0.1169 C   0  0  0  0  0  0  0  0  0  0  0  0
   -0.3544   -0.9905   -1.4447 H   0  0  0  0  0  0  0  0  0  0  0  0
   -0.6701   -1.9345    0.0291 H   0  0  0  0  0  0  0  0  0  0  0  0
    1.8269   -0.8688   -0.3164 H   0  0  0  0  0  0  0  0  0  0  0  0
    1.0479   -0.6903    1.2724 H   0  0  0  0  0  0  0  0  0  0  0  0
    1.3893    1.6487    0.7546 H   0  0  0  0  0  0  0  0  0  0  0  0
    1.1770    1.3677   -0.9961 H   0  0  0  0  0  0  0  0  0  0  0  0
   -1.7221   -0.0467    1.1315 H   0  0  0  0  0  0  0  0  0  0  0  0
   -2.1950    0.3040   -0.5545 H   0  0  0  0  0  0  0  0  0  0  0  0
  1  7  1  0  0  0  0
  1  5  1  0  0  0  0
  1  2  1  0  0  0  0
  2  9  1  0  0  0  0
  3  4  1  0  0  0  0
  3  2  1  0  0  0  0
  3 10  1  0  0  0  0
  5  4  1  0  0  0  0
  5 12  1  0  0  0  0
  6  1  1  0  0  0  0
  8  2  1  0  0  0  0
 11  3  1  0  0  0  0
 13  5  1  0  0  0  0
M  END
>  <Charge>
0.0

>  <InChI>
1/C4H8O/c1-2-4-5-3-1/h1-4H2

>  <Molecular Formula>
C_{4}H_{8}O

>  <Name>
TETRAHYDROFURAN

>  <SMILES>
C1CCOC1

>  <logK (1,5-DIMETHYL-2-PYRROLIDINONE)>
2.861

>  <logK (1-ETHYL-2-PYRROLIDINONE)>
2.89

>  <logK (1-METHYL-2-PIPERIDINONE)>
2.87

>  <logK (1-OCTANOL)>
2.86

>  <logK (1-PROPANOL)>
2.9

>  <logK (2,2,4-TRIMETHYLPENTANE)>
2.726

>  <logK (2-ISOPROPOXYETHANOL)>
2.99327780069

>  <logK (2-PROPOXYETHANOL)>
2.98778577038

>  <logK (4-FORMYLMORPHOLINE)>
2.71

>  <logK (5,8,11,14-TETRAOXAOCTADECANE)>
2.822

>  <logK (ACETONE)>
3.02

>  <logK (BROMOBENZENE)>
2.9

>  <logK (CARBON TETRACHLORIDE)>
3.13

>  <logK (CHLOROBENZENE)>
2.97

>  <logK (CHLOROFORM)>
3.86

>  <logK (DIBUTYL ETHER)>
2.79

>  <logK (DICHLOROETHANE)>
3.16

>  <logK (DIETHYLENE GLYCOL DIBUTYL ETHER)>
2.846

>  <logK (DIMETHYLFORMAMIDE)>
2.93

>  <logK (EPSILON-CAPROLACTONE)>
2.861

>  <logK (ETHANOL)>
3.038

>  <logK (ETHYL ACETATE)>
3.01

>  <logK (ETHYLBENZENE)>
3.054

>  <logK (FORMAMIDE)>
2.69

>  <logK (HEXADECANE)>
2.534

>  <logK (HEXANE)>
2.7

>  <logK (ISOPROPANOL)>
2.89

>  <logK (METHANOL)>
3.25

>  <logK (METHOXYETHANOL)>
2.877

>  <logK (METHYLCYCLOHEXANE)>
2.78

>  <logK (N,N-DIBUTYLFORMAMID)>
2.85

>  <logK (N,N-DIETHYLACETAMIDE)>
2.91

>  <logK (N,N-DIMETHYLACETAMIDE)>
2.9

>  <logK (N-ETHYLACETAMIDE)>
2.85

>  <logK (N-ETHYLFORMAMIDE)>
2.88

>  <logK (N-METHYLACETAMIDE)>
2.84

>  <logK (N-METHYLPYRROLIDONE)>
2.96

>  <logK (OCTANE)>
2.68

>  <logK (PYRIDINE)>
3.185

>  <logK (SULFOLANE)>
2.71

>  <logK (TETRAETHYLENE GLYCOL DIMETHYL ETHER)>
2.749

>  <logK (TETRAHYDROFURAN)>
3.14

>  <logK (TOLUENE)>
3.218

>  <mean polarizability>
7.92

>  <dipole moment>
1.78540797301

>  <experimental polarizability source>
@Article{Bosque2002, Title = {Polarizabilities of Solvents from the Chemical Composition}, Author = {Bosque, Ramon and Sales, Joaquim}, Journal = {Journal of Chemical Information and Computer Sciences}, Year = {2002}, Note = {PMID: 12377003}, Number = {5}, Pages = {1154-1163}, Volume = {42}, Doi = {10.1021/ci025528x}, Url = {https://doi.org/10.1021/ci025528x}}

>  <Formula>
C4H8O

$$$$
055
 OpenBabel08101817183D

 14 14  0  0  0  0  0  0  0  0999 V2000
    1.4352    0.1149   -0.2613 C   0  0  0  0  0  0  0  0  0  0  0  0
    0.5967   -1.1626   -0.1220 C   0  0  0  0  0  0  0  0  0  0  0  0
   -0.6375   -1.0174   -0.8128 O   0  0  0  0  0  0  0  0  0  0  0  0
   -1.4456    0.0135   -0.2264 C   0  0  0  0  0  0  0  0  0  0  0  0
   -0.5888    1.0657    0.4901 C   0  0  0  0  0  0  0  0  0  0  0  0
    0.6152    1.2924   -0.2313 O   0  0  0  0  0  0  0  0  0  0  0  0
    2.1946    0.1570    0.5439 H   0  0  0  0  0  0  0  0  0  0  0  0
    1.9528    0.1358   -1.2302 H   0  0  0  0  0  0  0  0  0  0  0  0
    1.1196   -2.0126   -0.5793 H   0  0  0  0  0  0  0  0  0  0  0  0
    0.4224   -1.4135    0.9415 H   0  0  0  0  0  0  0  0  0  0  0  0
   -2.0016    0.4668   -1.0585 H   0  0  0  0  0  0  0  0  0  0  0  0
   -2.1727   -0.4276    0.4833 H   0  0  0  0  0  0  0  0  0  0  0  0
   -0.3696    0.7623    1.5314 H   0  0  0  0  0  0  0  0  0  0  0  0
   -1.1206    2.0252    0.5318 H   0  0  0  0  0  0  0  0  0  0  0  0
  1  6  1  0  0  0  0
  1  2  1  0  0  0  0
  1  7  1  0  0  0  0
  2 10  1  0  0  0  0
  3  4  1  0  0  0  0
  3  2  1  0  0  0  0
  4 12  1  0  0  0  0
  4  5  1  0  0  0  0
  5 14  1  0  0  0  0
  5 13  1  0  0  0  0
  6  5  1  0  0  0  0
  8  1  1  0  0  0  0
  9  2  1  0  0  0  0
 11  4  1  0  0  0  0
M  END
>  <Charge>
0.0

>  <InChI>
1/C4H8O2/c1-2-6-4-3-5-1/h1-4H2

>  <Molecular Formula>
C_{4}H_{8}O_{2}

>  <Name>
1,4-DIOXANE

>  <SMILES>
C1COCCO1

>  <logK (1,4-DIOXANE)>
3.77

>  <logK (1-CHLOROBUTANE)>
3.519

>  <logK (1-OCTANOL)>
3.17

>  <logK (1-PROPANOL)>
3.27

>  <logK (2,2,4-TRIMETHYLPENTANE)>
2.946

>  <logK (2-ISOPROPOXYETHANOL)>
3.52581985177

>  <logK (2-PICOLINE)>
3.709

>  <logK (2-PROPOXYETHANOL)>
3.44737062956

>  <logK (3-METHYLBUTAN-1-OL)>
3.34

>  <logK (5,8,11,14-TETRAOXAOCTADECANE)>
3.348

>  <logK (ACETIC ACID)>
4.296

>  <logK (ACETONE)>
3.72

>  <logK (ACETONITRILE)>
3.839

>  <logK (ACETOPHENONE)>
3.695

>  <logK (ANISOLE)>
3.724

>  <logK (BENZONITRILE)>
3.772

>  <logK (BENZYL ALCOHOL)>
4.012

>  <logK (BROMOBENZENE)>
3.83

>  <logK (BROMOETHANE)>
3.705

>  <logK (BUTANONE)>
3.68

>  <logK (BUTYROLACTONE)>
3.74

>  <logK (BUTYRONITRILE)>
3.701

>  <logK (CARBON DISULFIDE)>
3.372

>  <logK (CARBON TETRACHLORIDE)>
3.579

>  <logK (CHLOROBENZENE)>
3.72

>  <logK (CHLOROFORM)>
4.44

>  <logK (CYCLOHEXANONE)>
3.666

>  <logK (DECANE)>
2.91

>  <logK (DIBENZYL ETHER)>
3.494

>  <logK (DIBUTYL ETHER)>
3.14

>  <logK (DICHLOROETHANE)>
4.23

>  <logK (DICHLOROMETHANE)>
4.272

>  <logK (DIETHYL ETHER)>
3.38

>  <logK (DIETHYLDIGLYCOL)>
3.506

>  <logK (DIETHYLENE GLYCOL DIBUTYL ETHER)>
3.329

>  <logK (DIIODOMETHANE)>
3.62

>  <logK (DIISOPROPYL ETHER)>
3.214

>  <logK (DIMETHYL SULFOXIDE)>
3.634

>  <logK (DIMETHYLFORMAMIDE)>
3.72

>  <logK (ETHANOL)>
3.44

>  <logK (ETHYL ACETATE)>
3.67

>  <logK (ETHYL PHENYL ETHER)>
3.555

>  <logK (ETHYLBENZENE)>
3.452

>  <logK (ETHYLENE GLYCOL)>
3.27

>  <logK (FLUOROBENZENE)>
3.78

>  <logK (HEPTANE)>
2.95

>  <logK (HEXANE)>
2.98

>  <logK (IODOBENZENE)>
3.63

>  <logK (ISOPROPANOL)>
3.34

>  <logK (METHANOL)>
3.62

>  <logK (METHOXYETHANOL)>
3.625

>  <logK (METHYLCYCLOHEXANE)>
2.94

>  <logK (N,N-DIBUTYLFORMAMID)>
3.36

>  <logK (N,N-DIMETHYLACETAMIDE)>
3.66

>  <logK (N-BUTANOL)>
3.35

>  <logK (N-METHYLACETAMIDE)>
3.42

>  <logK (N-METHYLFORMAMIDE)>
3.56

>  <logK (N-METHYLPYRROLIDONE)>
3.66

>  <logK (NITROBENZENE)>
3.773

>  <logK (NITROETHANE)>
3.898

>  <logK (P-XYLENE)>
3.497

>  <logK (PENTANE)>
2.96

>  <logK (PERFLUOROBENZENE)>
3.606

>  <logK (PHENYLAMINE)>
4.159

>  <logK (PYRIDINE)>
3.811

>  <logK (SULFOLANE)>
3.444

>  <logK (TERT-BUTANOL)>
3.51

>  <logK (TETRAETHYLENE GLYCOL DIMETHYL ETHER)>
3.416

>  <logK (TETRAHYDROFURAN)>
3.74

>  <logK (TOLUENE)>
3.611

>  <logK (TRIBUTYL PHOSPHATE)>
3.246

>  <logK (TRIETHYLAMINE)>
3.156

>  <mean polarizability>
8.7

>  <dipole moment>
1.47715174125

>  <experimental polarizability source>
@Article{Bosque2002, Title = {Polarizabilities of Solvents from the Chemical Composition}, Author = {Bosque, Ramon and Sales, Joaquim}, Journal = {Journal of Chemical Information and Computer Sciences}, Year = {2002}, Note = {PMID: 12377003}, Number = {5}, Pages = {1154-1163}, Volume = {42}, Doi = {10.1021/ci025528x}, Url = {https://doi.org/10.1021/ci025528x}}

>  <Formula>
C4H8O2

$$$$
056
 OpenBabel08101817183D

 10  9  0  0  0  0  0  0  0  0999 V2000
   -1.1433    0.1408    0.1831 C   0  0  0  0  0  0  0  0  0  0  0  0
    0.1631   -0.5541   -0.2252 C   0  0  0  0  0  0  0  0  0  0  0  0
    1.3563    0.3383    0.0024 C   0  0  0  0  0  0  0  0  0  0  0  0
    2.3280    0.0556    0.6703 O   0  0  0  0  0  0  0  0  0  0  0  0
   -1.1746    0.3151    1.2663 H   0  0  0  0  0  0  0  0  0  0  0  0
   -2.0116   -0.4719   -0.0872 H   0  0  0  0  0  0  0  0  0  0  0  0
   -1.2518    1.1126   -0.3182 H   0  0  0  0  0  0  0  0  0  0  0  0
    0.3156   -1.4975    0.3144 H   0  0  0  0  0  0  0  0  0  0  0  0
    0.1321   -0.7797   -1.3057 H   0  0  0  0  0  0  0  0  0  0  0  0
    1.2862    1.3406   -0.5001 H   0  0  0  0  0  0  0  0  0  0  0  0
  1  5  1  0  0  0  0
  2  3  1  0  0  0  0
  2  1  1  0  0  0  0
  2  8  1  0  0  0  0
  3  4  2  0  0  0  0
  6  1  1  0  0  0  0
  7  1  1  0  0  0  0
  9  2  1  0  0  0  0
 10  3  1  0  0  0  0
M  END
>  <Charge>
0.0

>  <InChI>
1/C3H6O/c1-2-3-4/h3H,2H2,1H3

>  <Molecular Formula>
C_{3}H_{6}O

>  <Name>
PROPIONALDEHYDE

>  <SMILES>
CCC=O

>  <logK (1-HEXADECENE)>
1.81204039971

>  <logK (BUTANONE)>
2.82

>  <logK (FORMAMIDE)>
2.39

>  <logK (HEXADECANE)>
1.85

>  <logK (METHANOL)>
2.79

>  <logK (OCTANE)>
1.86

>  <logK (TETRAHYDROFURAN)>
2.8

>  <mean polarizability>
6.47

>  <dipole moment>
2.90032095677

$$$$
057
 OpenBabel08101817183D

 13 12  0  0  0  0  0  0  0  0999 V2000
   -1.8082   -0.0347    0.0623 C   0  0  0  0  0  0  0  0  0  0  0  0
   -0.3919    0.5201    0.2049 C   0  0  0  0  0  0  0  0  0  0  0  0
    0.6829   -0.4858   -0.2047 C   0  0  0  0  0  0  0  0  0  0  0  0
    2.1013    0.0302   -0.0756 C   0  0  0  0  0  0  0  0  0  0  0  0
    3.0922   -0.6118   -0.3500 O   0  0  0  0  0  0  0  0  0  0  0  0
   -1.9494   -0.9279    0.6875 H   0  0  0  0  0  0  0  0  0  0  0  0
   -2.0184   -0.3236   -0.9774 H   0  0  0  0  0  0  0  0  0  0  0  0
   -2.5616    0.7054    0.3621 H   0  0  0  0  0  0  0  0  0  0  0  0
   -0.2195    0.8321    1.2475 H   0  0  0  0  0  0  0  0  0  0  0  0
   -0.2879    1.4318   -0.4050 H   0  0  0  0  0  0  0  0  0  0  0  0
    0.6158   -1.4086    0.3959 H   0  0  0  0  0  0  0  0  0  0  0  0
    0.5479   -0.8109   -1.2501 H   0  0  0  0  0  0  0  0  0  0  0  0
    2.1967    1.0837    0.3028 H   0  0  0  0  0  0  0  0  0  0  0  0
  1  2  1  0  0  0  0
  1  8  1  0  0  0  0
  1  6  1  0  0  0  0
  2  9  1  0  0  0  0
  3  4  1  0  0  0  0
  3  2  1  0  0  0  0
  3 11  1  0  0  0  0
  4 13  1  0  0  0  0
  5  4  2  0  0  0  0
  7  1  1  0  0  0  0
 10  2  1  0  0  0  0
 12  3  1  0  0  0  0
M  END
>  <Charge>
0.0

>  <InChI>
1/C4H8O/c1-2-3-4-5/h4H,2-3H2,1H3

>  <Molecular Formula>
C_{4}H_{8}O

>  <Name>
BUTYRALDEHYDE

>  <SMILES>
CCCC=O

>  <logK (1-HEXADECENE)>
2.30932425091

>  <logK (2,2,4-TRIMETHYLPENTANE)>
2.529

>  <logK (4-FORMYLMORPHOLINE)>
2.89

>  <logK (FORMAMIDE)>
2.58

>  <logK (HEXADECANE)>
2.27

>  <logK (METHANOL)>
3.18

>  <logK (N-METHYLPYRROLIDONE)>
3.05

>  <logK (OCTANE)>
2.37

>  <logK (PENTANOL)>
2.71

>  <logK (TETRAHYDROFURAN)>
3.24

>  <logK (TOLUENE)>
2.935

>  <mean polarizability>
8.31

>  <dipole moment>
2.93190214085

$$$$
058
 OpenBabel08101817183D

 16 15  0  0  0  0  0  0  0  0999 V2000
   -2.0325    0.1528   -0.2338 C   0  0  0  0  0  0  0  0  0  0  0  0
   -1.0658   -0.9475    0.2043 C   0  0  0  0  0  0  0  0  0  0  0  0
    0.2602   -0.4345    0.7821 C   0  0  0  0  0  0  0  0  0  0  0  0
    1.1338    0.3135   -0.2408 C   0  0  0  0  0  0  0  0  0  0  0  0
    2.3869    0.8572    0.3914 C   0  0  0  0  0  0  0  0  0  0  0  0
    3.5194    0.5865    0.0509 O   0  0  0  0  0  0  0  0  0  0  0  0
   -2.2598    0.8357    0.5979 H   0  0  0  0  0  0  0  0  0  0  0  0
   -2.9826   -0.2737   -0.5820 H   0  0  0  0  0  0  0  0  0  0  0  0
   -1.6274    0.7554   -1.0586 H   0  0  0  0  0  0  0  0  0  0  0  0
   -1.5529   -1.5730    0.9683 H   0  0  0  0  0  0  0  0  0  0  0  0
   -0.8543   -1.6163   -0.6456 H   0  0  0  0  0  0  0  0  0  0  0  0
    0.0518    0.2277    1.6393 H   0  0  0  0  0  0  0  0  0  0  0  0
    0.8339   -1.2856    1.1796 H   0  0  0  0  0  0  0  0  0  0  0  0
    0.5732    1.1787   -0.6362 H   0  0  0  0  0  0  0  0  0  0  0  0
    1.4082   -0.3344   -1.0847 H   0  0  0  0  0  0  0  0  0  0  0  0
    2.2077    1.5575    1.2517 H   0  0  0  0  0  0  0  0  0  0  0  0
  1  2  1  0  0  0  0
  1  7  1  0  0  0  0
  2  3  1  0  0  0  0
  2 10  1  0  0  0  0
  3 13  1  0  0  0  0
  3 12  1  0  0  0  0
  4  5  1  0  0  0  0
  4  3  1  0  0  0  0
  5 16  1  0  0  0  0
  6  5  2  0  0  0  0
  8  1  1  0  0  0  0
  9  1  1  0  0  0  0
 11  2  1  0  0  0  0
 14  4  1  0  0  0  0
 15  4  1  0  0  0  0
M  END
>  <Charge>
0.0

>  <InChI>
1/C5H10O/c1-2-3-4-5-6/h5H,2-4H2,1H3

>  <Molecular Formula>
C_{5}H_{10}O

>  <Name>
VALERALDEHYDE

>  <SMILES>
CCCCC=O

>  <logK (2,2,4-TRIMETHYLPENTANE)>
3.108

>  <logK (4-FORMYLMORPHOLINE)>
3.29

>  <logK (FORMAMIDE)>
2.76

>  <logK (HEXADECANE)>
2.77

>  <logK (METHANOL)>
3.57

>  <logK (N-METHYLPYRROLIDONE)>
3.42

>  <logK (OCTANE)>
2.91

>  <mean polarizability>
10.31

>  <dipole moment>
3.13157339929

$$$$
059
 OpenBabel08101817183D

 10  9  0  0  0  0  0  0  0  0999 V2000
    1.2950   -0.1425   -0.1661 C   0  0  0  0  0  0  0  0  0  0  0  0
    0.0103   -0.0398    0.6273 C   0  0  0  0  0  0  0  0  0  0  0  0
   -0.0064   -0.1125    1.8434 O   0  0  0  0  0  0  0  0  0  0  0  0
   -1.2751    0.1603   -0.1616 C   0  0  0  0  0  0  0  0  0  0  0  0
    2.1494   -0.2844    0.5025 H   0  0  0  0  0  0  0  0  0  0  0  0
    1.2309   -0.9799   -0.8775 H   0  0  0  0  0  0  0  0  0  0  0  0
    1.4369    0.7664   -0.7703 H   0  0  0  0  0  0  0  0  0  0  0  0
   -1.9648   -0.6624    0.0700 H   0  0  0  0  0  0  0  0  0  0  0  0
   -1.7585    1.0865    0.1774 H   0  0  0  0  0  0  0  0  0  0  0  0
   -1.1176    0.2083   -1.2452 H   0  0  0  0  0  0  0  0  0  0  0  0
  1  5  1  0  0  0  0
  1  2  1  0  0  0  0
  2  3  2  0  0  0  0
  4  8  1  0  0  0  0
  4  9  1  0  0  0  0
  4  2  1  0  0  0  0
  6  1  1  0  0  0  0
  7  1  1  0  0  0  0
 10  4  1  0  0  0  0
M  END
>  <Charge>
0.0

>  <InChI>
1/C3H6O/c1-3(2)4/h1-2H3

>  <Molecular Formula>
C_{3}H_{6}O

>  <Name>
ACETONE

>  <SMILES>
CC(=O)C

>  <logK (1,4-DIOXANE)>
2.84

>  <logK (1,5-DIMETHYL-2-PYRROLIDINONE)>
2.815

>  <logK (1-CHLOROBUTANE)>
2.654

>  <logK (1-ETHYL-2-PYRROLIDINONE)>
2.759

>  <logK (1-METHYL-2-PIPERIDINONE)>
2.8

>  <logK (1-OCTANOL)>
2.31

>  <logK (2,2,4-TRIMETHYLPENTANE)>
1.788

>  <logK (2-ISOPROPOXYETHANOL)>
2.67150433115

>  <logK (2-PROPOXYETHANOL)>
2.66009843635

>  <logK (4-FORMYLMORPHOLINE)>
2.71

>  <logK (5,8,11,14-TETRAOXAOCTADECANE)>
2.425

>  <logK (ACETONE)>
3.04

>  <logK (BUTANONE)>
2.92

>  <logK (CARBON TETRACHLORIDE)>
2.49

>  <logK (CHLOROBENZENE)>
2.84

>  <logK (CHLOROFORM)>
3.29

>  <logK (CYCLOHEXANONE)>
2.789

>  <logK (DECANE)>
1.81

>  <logK (DIBUTYL ETHER)>
2.25

>  <logK (DICHLOROETHANE)>
3.13

>  <logK (DICHLOROMETHANE)>
3.387

>  <logK (DIETHYL ETHER)>
2.57

>  <logK (DIETHYLENE GLYCOL DIBUTYL ETHER)>
2.411

>  <logK (DIIODOMETHANE)>
2.43

>  <logK (DIMETHYLFORMAMIDE)>
2.95

>  <logK (DODECANE)>
1.81

>  <logK (EPSILON-CAPROLACTONE)>
2.761

>  <logK (ETHANOL)>
2.77

>  <logK (ETHYL ACETATE)>
2.86

>  <logK (FORMAMIDE)>
2.73

>  <logK (HEPTANE)>
1.87

>  <logK (HEXADECANE)>
1.76

>  <logK (HEXANE)>
1.963

>  <logK (ISOPROPANOL)>
2.46

>  <logK (M-XYLENE)>
2.493

>  <logK (METHANOL)>
2.89

>  <logK (METHOXYETHANOL)>
2.781

>  <logK (METHYL ACETATE)>
2.949

>  <logK (METHYLCYCLOHEXANE)>
1.89

>  <logK (N,N-DIBUTYLFORMAMID)>
2.6

>  <logK (N,N-DIETHYLACETAMIDE)>
2.8

>  <logK (N,N-DIMETHYLACETAMIDE)>
2.89

>  <logK (N-BUTANOL)>
2.57

>  <logK (N-ETHYLACETAMIDE)>
2.61

>  <logK (N-ETHYLFORMAMIDE)>
2.73

>  <logK (N-METHYLACETAMIDE)>
2.69

>  <logK (N-METHYLFORMAMIDE)>
2.8

>  <logK (N-METHYLPYRROLIDONE)>
2.91

>  <logK (O-XYLENE)>
2.46

>  <logK (OCTANE)>
1.85

>  <logK (P-XYLENE)>
2.485

>  <logK (PENTANOL)>
2.49

>  <logK (PHENYLAMINE)>
3.031

>  <logK (PYRIDINE)>
2.926

>  <logK (SULFOLANE)>
2.712

>  <logK (TETRAETHYLENE GLYCOL DIMETHYL ETHER)>
2.561

>  <logK (TETRAHYDROFURAN)>
2.85

>  <logK (TOLUENE)>
2.581

>  <logK (TRIBUTYL PHOSPHATE)>
2.51

>  <mean polarizability>
6.49

>  <dipole moment>
2.91389982687

>  <experimental polarizability source>
@Article{Bosque2002, Title = {Polarizabilities of Solvents from the Chemical Composition}, Author = {Bosque, Ramon and Sales, Joaquim}, Journal = {Journal of Chemical Information and Computer Sciences}, Year = {2002}, Note = {PMID: 12377003}, Number = {5}, Pages = {1154-1163}, Volume = {42}, Doi = {10.1021/ci025528x}, Url = {https://doi.org/10.1021/ci025528x}}

>  <Formula>
C3H6O

$$$$
060
 OpenBabel08101817183D

 13 12  0  0  0  0  0  0  0  0999 V2000
   -1.5966   -0.1519   -0.1281 C   0  0  0  0  0  0  0  0  0  0  0  0
   -0.3225   -0.9653    0.1481 C   0  0  0  0  0  0  0  0  0  0  0  0
    0.9213   -0.2903   -0.4047 C   0  0  0  0  0  0  0  0  0  0  0  0
    1.5498   -0.7639   -1.3362 O   0  0  0  0  0  0  0  0  0  0  0  0
    1.3553    1.0177    0.2407 C   0  0  0  0  0  0  0  0  0  0  0  0
   -1.7580   -0.0330   -1.2076 H   0  0  0  0  0  0  0  0  0  0  0  0
   -1.5485    0.8498    0.3198 H   0  0  0  0  0  0  0  0  0  0  0  0
   -2.4745   -0.6606    0.2897 H   0  0  0  0  0  0  0  0  0  0  0  0
   -0.3927   -1.9621   -0.3048 H   0  0  0  0  0  0  0  0  0  0  0  0
   -0.1967   -1.0878    1.2366 H   0  0  0  0  0  0  0  0  0  0  0  0
    0.7433    1.3040    1.1040 H   0  0  0  0  0  0  0  0  0  0  0  0
    1.3157    1.8194   -0.5092 H   0  0  0  0  0  0  0  0  0  0  0  0
    2.4041    0.9236    0.5515 H   0  0  0  0  0  0  0  0  0  0  0  0
  1  2  1  0  0  0  0
  1  8  1  0  0  0  0
  1  7  1  0  0  0  0
  2 10  1  0  0  0  0
  3  2  1  0  0  0  0
  3  5  1  0  0  0  0
  4  3  2  0  0  0  0
  5 13  1  0  0  0  0
  5 11  1  0  0  0  0
  6  1  1  0  0  0  0
  9  2  1  0  0  0  0
 12  5  1  0  0  0  0
M  END
>  <Charge>
0.0

>  <InChI>
1/C4H8O/c1-3-4(2)5/h3H2,1-2H3

>  <Molecular Formula>
C_{4}H_{8}O

>  <Name>
BUTANONE

>  <SMILES>
CCC(=O)C

>  <logK ((\xb1)-2-BUTANOL)>
3.05

>  <logK (1,4-DIOXANE)>
3.28

>  <logK (1,5-DIMETHYL-2-PYRROLIDINONE)>
3.213

>  <logK (1-ETHYL-2-PYRROLIDINONE)>
3.169

>  <logK (1-HEXADECENE)>
2.29368813635

>  <logK (1-METHYL-2-PIPERIDINONE)>
3.17

>  <logK (1-OCTANOL)>
2.77

>  <logK (1-PROPANOL)>
3.07

>  <logK (2,2,4-TRIMETHYLPENTANE)>
2.492

>  <logK (2-PICOLINE)>
3.343

>  <logK (3-METHYLBUTAN-1-OL)>
3.01

>  <logK (4-FORMYLMORPHOLINE)>
3.02

>  <logK (5,8,11,14-TETRAOXAOCTADECANE)>
2.874

>  <logK (ACETIC ACID)>
3.585

>  <logK (ACETONE)>
3.42

>  <logK (ACETONITRILE)>
3.502

>  <logK (ACETOPHENONE)>
3.241

>  <logK (ANISOLE)>
3.294

>  <logK (BENZONITRILE)>
3.356

>  <logK (BENZYL ALCOHOL)>
3.406

>  <logK (BROMOBENZENE)>
3.22

>  <logK (BROMOETHANE)>
3.422

>  <logK (BUTANONE)>
3.36

>  <logK (BUTYROLACTONE)>
3.283

>  <logK (BUTYRONITRILE)>
3.396

>  <logK (CARBON DISULFIDE)>
2.816

>  <logK (CARBON TETRACHLORIDE)>
3.03

>  <logK (CHLOROBENZENE)>
3.32

>  <logK (CHLOROFORM)>
3.87

>  <logK (CYCLOHEXANONE)>
3.294

>  <logK (DECANE)>
2.4

>  <logK (DIBENZYL ETHER)>
2.993

>  <logK (DIBUTYL ETHER)>
2.73

>  <logK (DICHLOROETHANE)>
3.64

>  <logK (DICHLOROMETHANE)>
3.862

>  <logK (DIETHYL ETHER)>
3.03

>  <logK (DIETHYLDIGLYCOL)>
3.049

>  <logK (DIETHYLENE GLYCOL DIBUTYL ETHER)>
2.872

>  <logK (DIIODOMETHANE)>
2.81

>  <logK (DIISOPROPYL ETHER)>
2.843

>  <logK (DIMETHYL SULFOXIDE)>
3.147

>  <logK (DIMETHYLFORMAMIDE)>
3.36

>  <logK (EPSILON-CAPROLACTONE)>
3.127

>  <logK (ETHANOL)>
3.16

>  <logK (ETHYL ACETATE)>
3.26

>  <logK (ETHYL PHENYL ETHER)>
2.134

>  <logK (ETHYLBENZENE)>
3.018

>  <logK (ETHYLENE GLYCOL)>
2.64

>  <logK (FLUOROBENZENE)>
3.4

>  <logK (FORMAMIDE)>
2.9

>  <logK (HEPTANE)>
2.49

>  <logK (HEXADECANE)>
2.87

>  <logK (HEXANE)>
2.49

>  <logK (HEXANOL)>
2.842

>  <logK (IODOBENZENE)>
3.1

>  <logK (ISOBUTANOL)>
2.99

>  <logK (ISOPROPANOL)>
2.99

>  <logK (M-CRESOL)>
4.417

>  <logK (M-XYLENE)>
2.997

>  <logK (METHANOL)>
3.34

>  <logK (METHOXYETHANOL)>
3.165

>  <logK (N,N-DIBUTYLFORMAMID)>
3.08

>  <logK (N,N-DIETHYLACETAMIDE)>
3.22

>  <logK (N,N-DIMETHYLACETAMIDE)>
3.28

>  <logK (N-BUTANOL)>
3.02

>  <logK (N-ETHYLACETAMIDE)>
3.02

>  <logK (N-ETHYLFORMAMIDE)>
3.11

>  <logK (N-METHYLACETAMIDE)>
3.07

>  <logK (N-METHYLFORMAMIDE)>
3.13

>  <logK (N-METHYLPYRROLIDONE)>
3.25

>  <logK (NITROBENZENE)>
3.283

>  <logK (NITROETHANE)>
3.514

>  <logK (NITROMETHANE)>
3.493

>  <logK (OCTANE)>
2.37

>  <logK (P-XYLENE)>
3.096

>  <logK (PENTANE)>
2.51

>  <logK (PENTANOL)>
2.85

>  <logK (PERFLUOROBENZENE)>
3.172

>  <logK (PHENYLAMINE)>
3.567

>  <logK (PROPYLENE CARBONATE)>
3.18

>  <logK (PYRIDINE)>
3.416

>  <logK (SULFOLANE)>
3.031

>  <logK (TERT-BUTANOL)>
3.11

>  <logK (TETRAETHYLENE GLYCOL DIMETHYL ETHER)>
2.974

>  <logK (TETRAHYDROFURAN)>
3.33

>  <logK (TOLUENE)>
3.147

>  <logK (TRIBUTYL PHOSPHATE)>
2.98

>  <logK (TRIETHYLAMINE)>
2.702

>  <mean polarizability>
8.27

>  <dipole moment>
2.95960892401

>  <Formula>
C4H8O

$$$$
061
 OpenBabel08101817183D

 16 15  0  0  0  0  0  0  0  0999 V2000
   -1.9897    0.4120   -0.4513 C   0  0  0  0  0  0  0  0  0  0  0  0
   -1.0241   -0.7416   -0.1831 C   0  0  0  0  0  0  0  0  0  0  0  0
    0.2247   -0.3305    0.6282 C   0  0  0  0  0  0  0  0  0  0  0  0
    1.1034    0.6557   -0.1254 C   0  0  0  0  0  0  0  0  0  0  0  0
    1.0599    1.8548    0.0967 O   0  0  0  0  0  0  0  0  0  0  0  0
    2.0351    0.0764   -1.1724 C   0  0  0  0  0  0  0  0  0  0  0  0
   -2.8659    0.0653   -1.0151 H   0  0  0  0  0  0  0  0  0  0  0  0
   -2.3473    0.8533    0.4892 H   0  0  0  0  0  0  0  0  0  0  0  0
   -1.5145    1.2169   -1.0274 H   0  0  0  0  0  0  0  0  0  0  0  0
   -0.7103   -1.1986   -1.1349 H   0  0  0  0  0  0  0  0  0  0  0  0
   -1.5414   -1.5356    0.3757 H   0  0  0  0  0  0  0  0  0  0  0  0
   -0.0843    0.1442    1.5695 H   0  0  0  0  0  0  0  0  0  0  0  0
    0.8101   -1.2327    0.8646 H   0  0  0  0  0  0  0  0  0  0  0  0
    1.5428   -0.7026   -1.7710 H   0  0  0  0  0  0  0  0  0  0  0  0
    2.8824   -0.4070   -0.6614 H   0  0  0  0  0  0  0  0  0  0  0  0
    2.4193    0.8698   -1.8208 H   0  0  0  0  0  0  0  0  0  0  0  0
  1  2  1  0  0  0  0
  1  8  1  0  0  0  0
  2 11  1  0  0  0  0
  2  3  1  0  0  0  0
  3 13  1  0  0  0  0
  3 12  1  0  0  0  0
  4  5  2  0  0  0  0
  4  3  1  0  0  0  0
  6 15  1  0  0  0  0
  6  4  1  0  0  0  0
  7  1  1  0  0  0  0
  9  1  1  0  0  0  0
 10  2  1  0  0  0  0
 14  6  1  0  0  0  0
 16  6  1  0  0  0  0
M  END
>  <Charge>
0.0

>  <InChI>
1/C5H10O/c1-3-4-5(2)6/h3-4H2,1-2H3

>  <Molecular Formula>
C_{5}H_{10}O

>  <Name>
PENTAN-2-ONE

>  <SMILES>
CCCC(=O)C

>  <logK (1,5-DIMETHYL-2-PYRROLIDINONE)>
3.591

>  <logK (1-ETHYL-2-PYRROLIDINONE)>
3.557

>  <logK (1-METHYL-2-PIPERIDINONE)>
3.54

>  <logK (1-OCTANOL)>
3.19

>  <logK (2,2,4-TRIMETHYLPENTANE)>
3.034

>  <logK (4-FORMYLMORPHOLINE)>
3.31

>  <logK (CARBON TETRACHLORIDE)>
3.52

>  <logK (CHLOROBENZENE)>
3.87

>  <logK (DECANE)>
2.88

>  <logK (DIIODOMETHANE)>
3.09

>  <logK (EPSILON-CAPROLACTONE)>
3.475

>  <logK (FORMAMIDE)>
3.02

>  <logK (HEPTANE)>
2.983

>  <logK (HEXADECANE)>
2.755

>  <logK (METHANOL)>
3.58

>  <logK (N,N-DIETHYLACETAMIDE)>
3.6

>  <logK (N-ETHYLACETAMIDE)>
3.38

>  <logK (N-ETHYLFORMAMIDE)>
3.44

>  <logK (N-METHYLFORMAMIDE)>
3.44

>  <logK (N-METHYLPYRROLIDONE)>
3.47

>  <logK (OCTANE)>
2.84

>  <logK (PENTAN-2-ONE)>
3.687

>  <logK (PROPYLENE CARBONATE)>
3.48

>  <logK (TOLUENE)>
3.679

>  <logK (TRIBUTYL PHOSPHATE)>
3.37

>  <mean polarizability>
10.08

>  <dipole moment>
2.94845403954

>  <Formula>
C5H10O

$$$$
062
 OpenBabel08101817183D

 19 18  0  0  0  0  0  0  0  0999 V2000
   -2.8967    0.0810   -0.5189 C   0  0  0  0  0  0  0  0  0  0  0  0
   -1.4443    0.4775   -0.2569 C   0  0  0  0  0  0  0  0  0  0  0  0
   -0.6924   -0.5520    0.5912 C   0  0  0  0  0  0  0  0  0  0  0  0
    0.7658   -0.1803    0.8500 C   0  0  0  0  0  0  0  0  0  0  0  0
    1.6939   -0.3577   -0.3463 C   0  0  0  0  0  0  0  0  0  0  0  0
    1.3652   -0.9868   -1.3375 O   0  0  0  0  0  0  0  0  0  0  0  0
    3.0619    0.2858   -0.2311 C   0  0  0  0  0  0  0  0  0  0  0  0
   -3.4524   -0.0434    0.4220 H   0  0  0  0  0  0  0  0  0  0  0  0
   -3.4203    0.8384   -1.1174 H   0  0  0  0  0  0  0  0  0  0  0  0
   -2.9525   -0.8716   -1.0646 H   0  0  0  0  0  0  0  0  0  0  0  0
   -1.4141    1.4561    0.2510 H   0  0  0  0  0  0  0  0  0  0  0  0
   -0.9202    0.6067   -1.2159 H   0  0  0  0  0  0  0  0  0  0  0  0
   -1.2087   -0.6750    1.5562 H   0  0  0  0  0  0  0  0  0  0  0  0
   -0.7230   -1.5295    0.0867 H   0  0  0  0  0  0  0  0  0  0  0  0
    1.1929   -0.8071    1.6537 H   0  0  0  0  0  0  0  0  0  0  0  0
    0.8603    0.8545    1.2213 H   0  0  0  0  0  0  0  0  0  0  0  0
    2.9579    1.3709   -0.3875 H   0  0  0  0  0  0  0  0  0  0  0  0
    3.4909    0.1496    0.7713 H   0  0  0  0  0  0  0  0  0  0  0  0
    3.7357   -0.1171   -0.9938 H   0  0  0  0  0  0  0  0  0  0  0  0
  1  2  1  0  0  0  0
  1  8  1  0  0  0  0
  2 11  1  0  0  0  0
  2  3  1  0  0  0  0
  3  4  1  0  0  0  0
  3 13  1  0  0  0  0
  4 16  1  0  0  0  0
  4 15  1  0  0  0  0
  5  7  1  0  0  0  0
  5  4  1  0  0  0  0
  6  5  2  0  0  0  0
  7 18  1  0  0  0  0
  9  1  1  0  0  0  0
 10  1  1  0  0  0  0
 12  2  1  0  0  0  0
 14  3  1  0  0  0  0
 17  7  1  0  0  0  0
 19  7  1  0  0  0  0
M  END
>  <Charge>
0.0

>  <InChI>
1/C6H12O/c1-3-4-5-6(2)7/h3-5H2,1-2H3

>  <Molecular Formula>
C_{6}H_{12}O

>  <Name>
2-HEXANONE

>  <SMILES>
CCCCC(=O)C

>  <logK (1,4-DIOXANE)>
4.17

>  <logK (1-OCTANOL)>
3.68

>  <logK (2,2,4-TRIMETHYLPENTANE)>
3.46

>  <logK (2-HEXANONE)>
4.108

>  <logK (CARBON TETRACHLORIDE)>
4.01

>  <logK (CHLOROBENZENE)>
4.28

>  <logK (DECANE)>
3.379

>  <logK (FORMAMIDE)>
3.27

>  <logK (HEPTANE)>
3.335

>  <logK (HEXADECANE)>
3.262

>  <logK (HEXANE)>
3.43

>  <logK (METHANOL)>
3.82

>  <logK (OCTANE)>
3.372

>  <logK (TOLUENE)>
4.105

>  <mean polarizability>
12.06

>  <dipole moment>
2.70328369275

>  <experimental polarizability source>
@Article{Bosque2002, Title = {Polarizabilities of Solvents from the Chemical Composition}, Author = {Bosque, Ramon and Sales, Joaquim}, Journal = {Journal of Chemical Information and Computer Sciences}, Year = {2002}, Note = {PMID: 12377003}, Number = {5}, Pages = {1154-1163}, Volume = {42}, Doi = {10.1021/ci025528x}, Url = {https://doi.org/10.1021/ci025528x}}

>  <Formula>
C6H12O

$$$$
063
 OpenBabel08101817183D

 22 21  0  0  0  0  0  0  0  0999 V2000
   -2.8808    0.4532    0.0269 C   0  0  0  0  0  0  0  0  0  0  0  0
   -2.1106   -0.6784   -0.6560 C   0  0  0  0  0  0  0  0  0  0  0  0
   -1.0301   -1.3247    0.2222 C   0  0  0  0  0  0  0  0  0  0  0  0
    0.1020   -0.3944    0.6776 C   0  0  0  0  0  0  0  0  0  0  0  0
    0.9483    0.1661   -0.4794 C   0  0  0  0  0  0  0  0  0  0  0  0
    2.0204    1.1174    0.0366 C   0  0  0  0  0  0  0  0  0  0  0  0
    1.7190    2.1764    0.5620 O   0  0  0  0  0  0  0  0  0  0  0  0
    3.4615    0.6812   -0.1160 C   0  0  0  0  0  0  0  0  0  0  0  0
   -2.2309    1.3031    0.2755 H   0  0  0  0  0  0  0  0  0  0  0  0
   -3.3450    0.1071    0.9620 H   0  0  0  0  0  0  0  0  0  0  0  0
   -3.6823    0.8332   -0.6207 H   0  0  0  0  0  0  0  0  0  0  0  0
   -1.6614   -0.3069   -1.5910 H   0  0  0  0  0  0  0  0  0  0  0  0
   -2.8178   -1.4645   -0.9625 H   0  0  0  0  0  0  0  0  0  0  0  0
   -0.5947   -2.1815   -0.3182 H   0  0  0  0  0  0  0  0  0  0  0  0
   -1.5111   -1.7453    1.1207 H   0  0  0  0  0  0  0  0  0  0  0  0
   -0.2985    0.4513    1.2545 H   0  0  0  0  0  0  0  0  0  0  0  0
    0.7585   -0.9507    1.3655 H   0  0  0  0  0  0  0  0  0  0  0  0
    1.3966   -0.6574   -1.0551 H   0  0  0  0  0  0  0  0  0  0  0  0
    0.3075    0.7444   -1.1616 H   0  0  0  0  0  0  0  0  0  0  0  0
    3.7040    0.5727   -1.1843 H   0  0  0  0  0  0  0  0  0  0  0  0
    3.6087   -0.3115    0.3357 H   0  0  0  0  0  0  0  0  0  0  0  0
    4.1364    1.4089    0.3449 H   0  0  0  0  0  0  0  0  0  0  0  0
  1  9  1  0  0  0  0
  1 10  1  0  0  0  0
  2  1  1  0  0  0  0
  2  3  1  0  0  0  0
  3  4  1  0  0  0  0
  3 15  1  0  0  0  0
  4 16  1  0  0  0  0
  4 17  1  0  0  0  0
  5  6  1  0  0  0  0
  5  4  1  0  0  0  0
  6  7  2  0  0  0  0
  8  6  1  0  0  0  0
  8 21  1  0  0  0  0
  8 22  1  0  0  0  0
 11  1  1  0  0  0  0
 12  2  1  0  0  0  0
 13  2  1  0  0  0  0
 14  3  1  0  0  0  0
 18  5  1  0  0  0  0
 19  5  1  0  0  0  0
 20  8  1  0  0  0  0
M  END
>  <Charge>
0.0

>  <InChI>
1/C7H14O/c1-3-4-5-6-7(2)8/h3-6H2,1-2H3

>  <Molecular Formula>
C_{7}H_{14}O

>  <Name>
2-HEPTANONE

>  <SMILES>
CCCCCC(=O)C

>  <logK (1-OCTANOL)>
4.15

>  <logK (2-HEPTANONE)>
4.526

>  <logK (CARBON TETRACHLORIDE)>
4.51

>  <logK (CHLOROBENZENE)>
4.74

>  <logK (DECANE)>
3.797

>  <logK (DIBUTYL ETHER)>
4.21

>  <logK (FORMAMIDE)>
3.48

>  <logK (HEPTANE)>
3.826

>  <logK (HEXADECANE)>
3.76

>  <logK (HEXANE)>
3.929

>  <logK (METHANOL)>
4.38

>  <logK (OCTANE)>
3.848

>  <logK (TOLUENE)>
4.618

>  <Formula>
C7H14O

>  <mean polarizability>
13.95

>  <dipole moment>
2.85530711888

$$$$
064
 OpenBabel08101817183D

 22 21  0  0  0  0  0  0  0  0999 V2000
   -3.1358   -0.0708   -1.3088 C   0  0  0  0  0  0  0  0  0  0  0  0
   -2.4147   -0.9728   -0.3064 C   0  0  0  0  0  0  0  0  0  0  0  0
   -0.8978   -0.7833   -0.3116 C   0  0  0  0  0  0  0  0  0  0  0  0
   -0.4218    0.5219    0.3196 C   0  0  0  0  0  0  0  0  0  0  0  0
   -1.1429    1.1780    1.0538 O   0  0  0  0  0  0  0  0  0  0  0  0
    1.0008    0.9643    0.0112 C   0  0  0  0  0  0  0  0  0  0  0  0
    2.0856   -0.0725    0.3476 C   0  0  0  0  0  0  0  0  0  0  0  0
    3.4944    0.4583    0.0827 C   0  0  0  0  0  0  0  0  0  0  0  0
   -2.7991   -0.2698   -2.3371 H   0  0  0  0  0  0  0  0  0  0  0  0
   -2.9530    0.9895   -1.0898 H   0  0  0  0  0  0  0  0  0  0  0  0
   -4.2216   -0.2324   -1.2785 H   0  0  0  0  0  0  0  0  0  0  0  0
   -2.6405   -2.0269   -0.5265 H   0  0  0  0  0  0  0  0  0  0  0  0
   -2.7887   -0.7704    0.7072 H   0  0  0  0  0  0  0  0  0  0  0  0
   -0.4079   -1.5922    0.2592 H   0  0  0  0  0  0  0  0  0  0  0  0
   -0.4854   -0.8634   -1.3316 H   0  0  0  0  0  0  0  0  0  0  0  0
    1.0531    1.1993   -1.0665 H   0  0  0  0  0  0  0  0  0  0  0  0
    1.1791    1.8984    0.5613 H   0  0  0  0  0  0  0  0  0  0  0  0
    1.9923   -0.3593    1.4068 H   0  0  0  0  0  0  0  0  0  0  0  0
    1.9226   -0.9897   -0.2379 H   0  0  0  0  0  0  0  0  0  0  0  0
    4.2569   -0.2911    0.3337 H   0  0  0  0  0  0  0  0  0  0  0  0
    3.6988    1.3566    0.6816 H   0  0  0  0  0  0  0  0  0  0  0  0
    3.6253    0.7281   -0.9750 H   0  0  0  0  0  0  0  0  0  0  0  0
  1 11  1  0  0  0  0
  1 10  1  0  0  0  0
  1  2  1  0  0  0  0
  2 13  1  0  0  0  0
  3  2  1  0  0  0  0
  3 14  1  0  0  0  0
  3  4  1  0  0  0  0
  4  5  2  0  0  0  0
  6  4  1  0  0  0  0
  6  7  1  0  0  0  0
  6 17  1  0  0  0  0
  7 18  1  0  0  0  0
  8 20  1  0  0  0  0
  8  7  1  0  0  0  0
  8 21  1  0  0  0  0
  9  1  1  0  0  0  0
 12  2  1  0  0  0  0
 15  3  1  0  0  0  0
 16  6  1  0  0  0  0
 19  7  1  0  0  0  0
 22  8  1  0  0  0  0
M  END
>  <Charge>
0.0

>  <InChI>
1/C7H14O/c1-3-5-7(8)6-4-2/h3-6H2,1-2H3

>  <Molecular Formula>
C_{7}H_{14}O

>  <Name>
4-HEPTANONE

>  <SMILES>
CCCC(=O)CCC

>  <logK (DIBUTYL ETHER)>
4.12

>  <logK (HEXADECANE)>
3.82

>  <logK (METHANOL)>
4.23

>  <mean polarizability>
13.92

>  <dipole moment>
2.85352023593

$$$$
065
 OpenBabel08101817183D

 11 10  0  0  0  0  0  0  0  0999 V2000
    1.8327    0.1335   -0.4358 C   0  0  0  0  0  0  0  0  0  0  0  0
    0.4404   -0.2829   -0.0364 C   0  0  0  0  0  0  0  0  0  0  0  0
    0.1598   -1.1211    0.7949 O   0  0  0  0  0  0  0  0  0  0  0  0
   -0.4914    0.4151   -0.7426 O   0  0  0  0  0  0  0  0  0  0  0  0
   -1.8606    0.0858   -0.4301 C   0  0  0  0  0  0  0  0  0  0  0  0
    1.9861   -0.0394   -1.5088 H   0  0  0  0  0  0  0  0  0  0  0  0
    1.9720    1.2075   -0.2570 H   0  0  0  0  0  0  0  0  0  0  0  0
    2.5634   -0.4379    0.1417 H   0  0  0  0  0  0  0  0  0  0  0  0
   -2.4698    0.7258   -1.0745 H   0  0  0  0  0  0  0  0  0  0  0  0
   -2.0735    0.2863    0.6272 H   0  0  0  0  0  0  0  0  0  0  0  0
   -2.0591   -0.9730   -0.6369 H   0  0  0  0  0  0  0  0  0  0  0  0
  1  7  1  0  0  0  0
  1  2  1  0  0  0  0
  1  8  1  0  0  0  0
  2  3  2  0  0  0  0
  4  5  1  0  0  0  0
  4  2  1  0  0  0  0
  5 10  1  0  0  0  0
  6  1  1  0  0  0  0
  9  5  1  0  0  0  0
 11  5  1  0  0  0  0
M  END
>  <Charge>
0.0

>  <InChI>
1/C3H6O2/c1-3(4)5-2/h1-2H3

>  <Molecular Formula>
C_{3}H_{6}O_{2}

>  <Name>
METHYL ACETATE

>  <SMILES>
CC(=O)OC

>  <logK (1-METHYL-2-PIPERIDINONE)>
2.73

>  <logK (1-OCTANOL)>
2.31

>  <logK (2-ETHOXYETHANOL)>
2.703

>  <logK (4-FORMYLMORPHOLINE)>
2.66

>  <logK (5,8,11,14-TETRAOXAOCTADECANE)>
2.551

>  <logK (ACETONE)>
3.02

>  <logK (BROMOBENZENE)>
2.7

>  <logK (CARBON TETRACHLORIDE)>
2.66

>  <logK (CHLOROBENZENE)>
2.8

>  <logK (CHLOROFORM)>
3.46

>  <logK (DECANE)>
2.05

>  <logK (DICHLOROETHANE)>
3.09

>  <logK (DIETHYLENE GLYCOL DIBUTYL ETHER)>
2.535

>  <logK (DIIODOMETHANE)>
2.32

>  <logK (DIMETHYLFORMAMIDE)>
2.86

>  <logK (FORMAMIDE)>
2.4

>  <logK (HEPTANE)>
2.035

>  <logK (HEXADECANE)>
1.96

>  <logK (HEXANE)>
2.146

>  <logK (ISOPROPANOL)>
2.46

>  <logK (METHANOL)>
2.92

>  <logK (METHYL ACETATE)>
3.032

>  <logK (N,N-DIBUTYLFORMAMID)>
2.55

>  <logK (N,N-DIMETHYLACETAMIDE)>
2.76

>  <logK (N-METHYLACETAMIDE)>
2.65

>  <logK (N-METHYLPYRROLIDONE)>
2.72

>  <logK (OCTANE)>
2.111

>  <logK (SULFOLANE)>
2.668

>  <logK (TETRAETHYLENE GLYCOL DIMETHYL ETHER)>
2.644

>  <logK (TOLUENE)>
2.66

>  <logK (TRIBUTYL PHOSPHATE)>
2.52

>  <mean polarizability>
7.08

>  <dipole moment>
1.85457500742

>  <experimental polarizability source>
@Article{Bosque2002, Title = {Polarizabilities of Solvents from the Chemical Composition}, Author = {Bosque, Ramon and Sales, Joaquim}, Journal = {Journal of Chemical Information and Computer Sciences}, Year = {2002}, Note = {PMID: 12377003}, Number = {5}, Pages = {1154-1163}, Volume = {42}, Doi = {10.1021/ci025528x}, Url = {https://doi.org/10.1021/ci025528x}}

>  <Formula>
C3H6O2

$$$$
066
 OpenBabel08101817183D

 17 16  0  0  0  0  0  0  0  0999 V2000
    2.0767    1.1107    0.4841 C   0  0  0  0  0  0  0  0  0  0  0  0
    1.7082    0.3619   -0.7965 C   0  0  0  0  0  0  0  0  0  0  0  0
    0.6451   -0.7038   -0.6044 C   0  0  0  0  0  0  0  0  0  0  0  0
   -0.5879   -0.0514   -0.1984 O   0  0  0  0  0  0  0  0  0  0  0  0
   -1.6437   -0.8821    0.0111 C   0  0  0  0  0  0  0  0  0  0  0  0
   -1.5870   -2.0883   -0.1164 O   0  0  0  0  0  0  0  0  0  0  0  0
   -2.8809   -0.1077    0.3919 C   0  0  0  0  0  0  0  0  0  0  0  0
    2.8661    1.8500    0.2960 H   0  0  0  0  0  0  0  0  0  0  0  0
    1.2094    1.6423    0.8959 H   0  0  0  0  0  0  0  0  0  0  0  0
    2.4435    0.4185    1.2557 H   0  0  0  0  0  0  0  0  0  0  0  0
    1.3701    1.0699   -1.5686 H   0  0  0  0  0  0  0  0  0  0  0  0
    2.5971   -0.1422   -1.2070 H   0  0  0  0  0  0  0  0  0  0  0  0
    0.4558   -1.2658   -1.5296 H   0  0  0  0  0  0  0  0  0  0  0  0
    0.9280   -1.4285    0.1736 H   0  0  0  0  0  0  0  0  0  0  0  0
   -3.4990    0.0310   -0.5062 H   0  0  0  0  0  0  0  0  0  0  0  0
   -3.4640   -0.6924    1.1108 H   0  0  0  0  0  0  0  0  0  0  0  0
   -2.6378    0.8778    0.8011 H   0  0  0  0  0  0  0  0  0  0  0  0
  1  9  1  0  0  0  0
  1 10  1  0  0  0  0
  2  3  1  0  0  0  0
  2  1  1  0  0  0  0
  3  4  1  0  0  0  0
  3 14  1  0  0  0  0
  4  5  1  0  0  0  0
  5  7  1  0  0  0  0
  6  5  2  0  0  0  0
  7 17  1  0  0  0  0
  7 16  1  0  0  0  0
  8  1  1  0  0  0  0
 11  2  1  0  0  0  0
 12  2  1  0  0  0  0
 13  3  1  0  0  0  0
 15  7  1  0  0  0  0
M  END
>  <Charge>
0.0

>  <InChI>
1/C5H10O2/c1-3-4-7-5(2)6/h3-4H2,1-2H3

>  <Molecular Formula>
C_{5}H_{10}O_{2}

>  <Name>
PROPYL ACETATE

>  <SMILES>
CCCOC(=O)C

>  <logK (1-METHYL-2-PIPERIDINONE)>
3.46

>  <logK (1-OCTANOL)>
3.17

>  <logK (2-ETHOXYETHANOL)>
3.45

>  <logK (4-FORMYLMORPHOLINE)>
3.24

>  <logK (5,8,11,14-TETRAOXAOCTADECANE)>
3.351

>  <logK (BROMOBENZENE)>
3.57

>  <logK (CARBON TETRACHLORIDE)>
3.64

>  <logK (CHLOROBENZENE)>
3.73

>  <logK (CHLOROFORM)>
4.61

>  <logK (DECANE)>
2.9

>  <logK (DIETHYLENE GLYCOL DIBUTYL ETHER)>
3.359

>  <logK (FORMAMIDE)>
2.73

>  <logK (HEPTANE)>
2.95

>  <logK (HEXADECANE)>
2.878

>  <logK (HEXANE)>
2.955

>  <logK (METHANOL)>
3.53

>  <logK (N,N-DIBUTYLFORMAMID)>
3.34

>  <logK (N,N-DIMETHYLACETAMIDE)>
3.46

>  <logK (N-METHYLACETAMIDE)>
3.33

>  <logK (N-METHYLPYRROLIDONE)>
3.39

>  <logK (OCTANE)>
2.946

>  <logK (PENTANOL)>
3.16

>  <logK (PROPYL ACETATE)>
3.68

>  <logK (SULFOLANE)>
3.173

>  <logK (TETRAETHYLENE GLYCOL DIMETHYL ETHER)>
3.351

>  <logK (TOLUENE)>
3.665

>  <logK (TRIBUTYL PHOSPHATE)>
3.32

>  <mean polarizability>
10.9

>  <dipole moment>
2.08619116063

>  <experimental polarizability source>
@Article{Bosque2002, Title = {Polarizabilities of Solvents from the Chemical Composition}, Author = {Bosque, Ramon and Sales, Joaquim}, Journal = {Journal of Chemical Information and Computer Sciences}, Year = {2002}, Note = {PMID: 12377003}, Number = {5}, Pages = {1154-1163}, Volume = {42}, Doi = {10.1021/ci025528x}, Url = {https://doi.org/10.1021/ci025528x}}

>  <Formula>
C5H10O2

$$$$
067
 OpenBabel08101817183D

 20 19  0  0  0  0  0  0  0  0999 V2000
    1.7679    1.2708   -0.0375 C   0  0  0  0  0  0  0  0  0  0  0  0
    2.1476   -0.2032   -0.1966 C   0  0  0  0  0  0  0  0  0  0  0  0
    1.0213   -1.1251   -0.6831 C   0  0  0  0  0  0  0  0  0  0  0  0
   -0.0898   -1.4192    0.3182 C   0  0  0  0  0  0  0  0  0  0  0  0
   -0.9366   -0.2680    0.5900 O   0  0  0  0  0  0  0  0  0  0  0  0
   -2.0126   -0.1077   -0.2286 C   0  0  0  0  0  0  0  0  0  0  0  0
   -2.2917   -0.8569   -1.1424 O   0  0  0  0  0  0  0  0  0  0  0  0
   -2.7990    1.1160    0.1699 C   0  0  0  0  0  0  0  0  0  0  0  0
    1.3726    1.6783   -0.9796 H   0  0  0  0  0  0  0  0  0  0  0  0
    2.6438    1.8723    0.2415 H   0  0  0  0  0  0  0  0  0  0  0  0
    1.0005    1.4141    0.7330 H   0  0  0  0  0  0  0  0  0  0  0  0
    2.9806   -0.2795   -0.9125 H   0  0  0  0  0  0  0  0  0  0  0  0
    2.5386   -0.5899    0.7594 H   0  0  0  0  0  0  0  0  0  0  0  0
    0.5721   -0.7326   -1.6085 H   0  0  0  0  0  0  0  0  0  0  0  0
    1.4554   -2.1025   -0.9501 H   0  0  0  0  0  0  0  0  0  0  0  0
   -0.7269   -2.2347   -0.0469 H   0  0  0  0  0  0  0  0  0  0  0  0
    0.3245   -1.6881    1.2994 H   0  0  0  0  0  0  0  0  0  0  0  0
   -3.6182    1.2701   -0.5368 H   0  0  0  0  0  0  0  0  0  0  0  0
   -3.2031    0.9869    1.1826 H   0  0  0  0  0  0  0  0  0  0  0  0
   -2.1470    1.9985    0.1909 H   0  0  0  0  0  0  0  0  0  0  0  0
  1 10  1  0  0  0  0
  1 11  1  0  0  0  0
  2  1  1  0  0  0  0
  2 13  1  0  0  0  0
  3  2  1  0  0  0  0
  3  4  1  0  0  0  0
  4  5  1  0  0  0  0
  4 17  1  0  0  0  0
  6  8  1  0  0  0  0
  6  5  1  0  0  0  0
  7  6  2  0  0  0  0
  8 20  1  0  0  0  0
  8 19  1  0  0  0  0
  9  1  1  0  0  0  0
 12  2  1  0  0  0  0
 14  3  1  0  0  0  0
 15  3  1  0  0  0  0
 16  4  1  0  0  0  0
 18  8  1  0  0  0  0
M  END
>  <Charge>
0.0

>  <InChI>
1/C6H12O2/c1-3-4-5-8-6(2)7/h3-5H2,1-2H3

>  <Molecular Formula>
C_{6}H_{12}O_{2}

>  <Name>
BUTYL ACETATE

>  <SMILES>
CCCCOC(=O)C

>  <logK (1-OCTANOL)>
3.65

>  <logK (2-ISOPROPOXYETHANOL)>
3.71508841413

>  <logK (5,8,11,14-TETRAOXAOCTADECANE)>
3.77

>  <logK (BROMOBENZENE)>
4.16

>  <logK (BUTYL ACETATE)>
4.09

>  <logK (CARBON TETRACHLORIDE)>
4.17

>  <logK (CHLOROBENZENE)>
4.28

>  <logK (CHLOROFORM)>
4.99

>  <logK (DECANE)>
3.484

>  <logK (DICHLOROETHANE)>
4.42

>  <logK (DIETHYLENE GLYCOL DIBUTYL ETHER)>
3.843

>  <logK (FORMAMIDE)>
2.98

>  <logK (HEPTANE)>
3.61

>  <logK (HEXADECANE)>
3.379

>  <logK (HEXANE)>
3.624

>  <logK (METHANOL)>
3.93

>  <logK (METHOXYETHANOL)>
3.805

>  <logK (N,N-DIBUTYLFORMAMID)>
3.84

>  <logK (N,N-DIMETHYLACETAMIDE)>
3.84

>  <logK (N-METHYLACETAMIDE)>
3.77

>  <logK (OCTANE)>
3.591

>  <logK (PYRIDINE)>
4.242

>  <logK (SULFOLANE)>
3.533

>  <logK (TETRAETHYLENE GLYCOL DIMETHYL ETHER)>
3.794

>  <logK (TOLUENE)>
4.083

>  <logK (TRIBUTYL PHOSPHATE)>
3.78

>  <Formula>
C6H12O2

>  <mean polarizability>
12.61

>  <dipole moment>
1.86078419695

$$$$
068
 OpenBabel08101817183D

 14 13  0  0  0  0  0  0  0  0999 V2000
   -1.9375    0.5471    0.1409 C   0  0  0  0  0  0  0  0  0  0  0  0
   -1.1944   -0.6281   -0.5081 C   0  0  0  0  0  0  0  0  0  0  0  0
    0.2731   -0.3449   -0.7487 C   0  0  0  0  0  0  0  0  0  0  0  0
    0.8136   -0.2791   -1.8341 O   0  0  0  0  0  0  0  0  0  0  0  0
    0.9359   -0.1626    0.4272 O   0  0  0  0  0  0  0  0  0  0  0  0
    2.3416    0.1282    0.2912 C   0  0  0  0  0  0  0  0  0  0  0  0
   -1.5301    0.7747    1.1331 H   0  0  0  0  0  0  0  0  0  0  0  0
   -3.0021    0.3057    0.2547 H   0  0  0  0  0  0  0  0  0  0  0  0
   -1.8626    1.4519   -0.4768 H   0  0  0  0  0  0  0  0  0  0  0  0
   -1.6313   -0.8781   -1.4818 H   0  0  0  0  0  0  0  0  0  0  0  0
   -1.2710   -1.5158    0.1373 H   0  0  0  0  0  0  0  0  0  0  0  0
    2.7175    0.2473    1.3112 H   0  0  0  0  0  0  0  0  0  0  0  0
    2.8573   -0.6952   -0.2182 H   0  0  0  0  0  0  0  0  0  0  0  0
    2.4901    1.0490   -0.2864 H   0  0  0  0  0  0  0  0  0  0  0  0
  1  8  1  0  0  0  0
  1  7  1  0  0  0  0
  2 11  1  0  0  0  0
  2  1  1  0  0  0  0
  3  2  1  0  0  0  0
  3  5  1  0  0  0  0
  4  3  2  0  0  0  0
  6  5  1  0  0  0  0
  6 12  1  0  0  0  0
  9  1  1  0  0  0  0
 10  2  1  0  0  0  0
 13  6  1  0  0  0  0
 14  6  1  0  0  0  0
M  END
>  <Charge>
0.0

>  <InChI>
1/C4H8O2/c1-3-4(5)6-2/h3H2,1-2H3

>  <Molecular Formula>
C_{4}H_{8}O_{2}

>  <Name>
METHYL PROPANOATE

>  <SMILES>
CCC(=O)OC

>  <logK (1-PROPANOL)>
2.85

>  <logK (CARBON TETRACHLORIDE)>
3.25

>  <logK (CHLOROBENZENE)>
3.34

>  <logK (CHLOROFORM)>
4.02

>  <logK (DECANE)>
2.556

>  <logK (ETHANOL)>
3.04

>  <logK (HEPTANE)>
2.659

>  <logK (HEXADECANE)>
2.459

>  <logK (HEXANE)>
2.672

>  <logK (METHANOL)>
3.17

>  <logK (OCTANE)>
2.619

>  <logK (TETRAHYDROFURAN)>
3.26

>  <logK (TOLUENE)>
3.386

>  <mean polarizability>
8.91

>  <dipole moment>
1.92843675903

$$$$
069
 OpenBabel08101817183D

 17 16  0  0  0  0  0  0  0  0999 V2000
   -2.8351    0.2595   -0.0321 C   0  0  0  0  0  0  0  0  0  0  0  0
   -1.3629    0.4100    0.3455 C   0  0  0  0  0  0  0  0  0  0  0  0
   -0.4235    0.0647   -0.8214 C   0  0  0  0  0  0  0  0  0  0  0  0
    1.0270    0.2731   -0.4491 C   0  0  0  0  0  0  0  0  0  0  0  0
    1.5221    1.3351   -0.1296 O   0  0  0  0  0  0  0  0  0  0  0  0
    1.7271   -0.8944   -0.4959 O   0  0  0  0  0  0  0  0  0  0  0  0
    3.1190   -0.7800   -0.1347 C   0  0  0  0  0  0  0  0  0  0  0  0
   -3.4882    0.5053    0.8157 H   0  0  0  0  0  0  0  0  0  0  0  0
   -3.0660   -0.7694   -0.3432 H   0  0  0  0  0  0  0  0  0  0  0  0
   -3.1028    0.9263   -0.8643 H   0  0  0  0  0  0  0  0  0  0  0  0
   -1.1296   -0.2425    1.2011 H   0  0  0  0  0  0  0  0  0  0  0  0
   -1.1546    1.4390    0.6710 H   0  0  0  0  0  0  0  0  0  0  0  0
   -0.6396    0.7320   -1.6699 H   0  0  0  0  0  0  0  0  0  0  0  0
   -0.5792   -0.9693   -1.1548 H   0  0  0  0  0  0  0  0  0  0  0  0
    3.5292   -1.7897   -0.2251 H   0  0  0  0  0  0  0  0  0  0  0  0
    3.2208   -0.4107    0.8932 H   0  0  0  0  0  0  0  0  0  0  0  0
    3.6363   -0.0891   -0.8116 H   0  0  0  0  0  0  0  0  0  0  0  0
  1  2  1  0  0  0  0
  1  8  1  0  0  0  0
  2 12  1  0  0  0  0
  2 11  1  0  0  0  0
  3  4  1  0  0  0  0
  3  2  1  0  0  0  0
  4  5  2  0  0  0  0
  6  4  1  0  0  0  0
  6  7  1  0  0  0  0
  7 16  1  0  0  0  0
  9  1  1  0  0  0  0
 10  1  1  0  0  0  0
 13  3  1  0  0  0  0
 14  3  1  0  0  0  0
 15  7  1  0  0  0  0
 17  7  1  0  0  0  0
M  END
>  <Charge>
0.0

>  <InChI>
1/C5H10O2/c1-3-4-5(6)7-2/h3-4H2,1-2H3

>  <Molecular Formula>
C_{5}H_{10}O_{2}

>  <Name>
METHYL BUTYRATE

>  <SMILES>
CCCC(=O)OC

>  <logK (1-PROPANOL)>
3.28

>  <logK (HEXADECANE)>
2.943

>  <logK (METHANOL)>
3.55

>  <mean polarizability>
10.94

>  <dipole moment>
1.68661299031

$$$$
070
 OpenBabel08101817183D

 20 19  0  0  0  0  0  0  0  0999 V2000
   -3.3809   -0.4095   -0.3780 C   0  0  0  0  0  0  0  0  0  0  0  0
   -2.2442    0.0103    0.5536 C   0  0  0  0  0  0  0  0  0  0  0  0
   -0.8605   -0.1868   -0.0689 C   0  0  0  0  0  0  0  0  0  0  0  0
    0.2700    0.2360    0.8643 C   0  0  0  0  0  0  0  0  0  0  0  0
    1.6502    0.0467    0.2719 C   0  0  0  0  0  0  0  0  0  0  0  0
    1.9020   -0.4112   -0.8236 O   0  0  0  0  0  0  0  0  0  0  0  0
    2.6072    0.4655    1.1464 O   0  0  0  0  0  0  0  0  0  0  0  0
    3.9631    0.3215    0.6779 C   0  0  0  0  0  0  0  0  0  0  0  0
   -3.3615    0.1687   -1.3130 H   0  0  0  0  0  0  0  0  0  0  0  0
   -3.3012   -1.4725   -0.6472 H   0  0  0  0  0  0  0  0  0  0  0  0
   -4.3631   -0.2557    0.0889 H   0  0  0  0  0  0  0  0  0  0  0  0
   -2.3707    1.0684    0.8362 H   0  0  0  0  0  0  0  0  0  0  0  0
   -2.3068   -0.5628    1.4932 H   0  0  0  0  0  0  0  0  0  0  0  0
   -0.7243   -1.2422   -0.3503 H   0  0  0  0  0  0  0  0  0  0  0  0
   -0.7889    0.3822   -1.0085 H   0  0  0  0  0  0  0  0  0  0  0  0
    0.1716    1.2946    1.1545 H   0  0  0  0  0  0  0  0  0  0  0  0
    0.2334   -0.3259    1.8116 H   0  0  0  0  0  0  0  0  0  0  0  0
    4.1234    0.9149   -0.2310 H   0  0  0  0  0  0  0  0  0  0  0  0
    4.1864   -0.7299    0.4585 H   0  0  0  0  0  0  0  0  0  0  0  0
    4.5946    0.6877    1.4923 H   0  0  0  0  0  0  0  0  0  0  0  0
  1 11  1  0  0  0  0
  1  2  1  0  0  0  0
  2 12  1  0  0  0  0
  2 13  1  0  0  0  0
  3  2  1  0  0  0  0
  3  4  1  0  0  0  0
  4 16  1  0  0  0  0
  4 17  1  0  0  0  0
  5  4  1  0  0  0  0
  5  7  1  0  0  0  0
  6  5  2  0  0  0  0
  8  7  1  0  0  0  0
  8 20  1  0  0  0  0
  9  1  1  0  0  0  0
 10  1  1  0  0  0  0
 14  3  1  0  0  0  0
 15  3  1  0  0  0  0
 18  8  1  0  0  0  0
 19  8  1  0  0  0  0
M  END
>  <Charge>
0.0

>  <InChI>
1/C6H12O2/c1-3-4-5-6(7)8-2/h3-5H2,1-2H3

>  <Molecular Formula>
C_{6}H_{12}O_{2}

>  <Name>
METHYL VALERATE

>  <SMILES>
CCCCC(=O)OC

>  <logK (CARBON TETRACHLORIDE)>
4.18

>  <logK (CHLOROBENZENE)>
4.27

>  <logK (CHLOROFORM)>
4.89

>  <logK (DECANE)>
3.484

>  <logK (HEPTANE)>
3.601

>  <logK (HEXADECANE)>
3.442

>  <logK (HEXANE)>
3.613

>  <logK (METHANOL)>
3.91

>  <logK (OCTANE)>
3.558

>  <logK (TOLUENE)>
4.141

>  <mean polarizability>
12.83

>  <dipole moment>
1.65931660427

$$$$
071
 OpenBabel08101817183D

 23 22  0  0  0  0  0  0  0  0999 V2000
   -3.1680    0.0009    0.3871 C   0  0  0  0  0  0  0  0  0  0  0  0
   -1.9730   -0.4713   -0.4428 C   0  0  0  0  0  0  0  0  0  0  0  0
   -0.8899    0.5962   -0.6540 C   0  0  0  0  0  0  0  0  0  0  0  0
   -0.2168    1.1277    0.6191 C   0  0  0  0  0  0  0  0  0  0  0  0
    0.5115    0.0585    1.4556 C   0  0  0  0  0  0  0  0  0  0  0  0
    1.5895   -0.6772    0.6896 C   0  0  0  0  0  0  0  0  0  0  0  0
    1.5959   -1.8649    0.4353 O   0  0  0  0  0  0  0  0  0  0  0  0
    2.5793    0.1745    0.3009 O   0  0  0  0  0  0  0  0  0  0  0  0
    3.6474   -0.4352   -0.4515 C   0  0  0  0  0  0  0  0  0  0  0  0
   -3.6348    0.8919   -0.0586 H   0  0  0  0  0  0  0  0  0  0  0  0
   -2.8806    0.2598    1.4159 H   0  0  0  0  0  0  0  0  0  0  0  0
   -3.9379   -0.7797    0.4524 H   0  0  0  0  0  0  0  0  0  0  0  0
   -1.5284   -1.3667    0.0183 H   0  0  0  0  0  0  0  0  0  0  0  0
   -2.3285   -0.7964   -1.4327 H   0  0  0  0  0  0  0  0  0  0  0  0
   -1.3316    1.4524   -1.1897 H   0  0  0  0  0  0  0  0  0  0  0  0
   -0.1170    0.1877   -1.3255 H   0  0  0  0  0  0  0  0  0  0  0  0
    0.5044    1.9094    0.3416 H   0  0  0  0  0  0  0  0  0  0  0  0
   -0.9626    1.6130    1.2663 H   0  0  0  0  0  0  0  0  0  0  0  0
   -0.1857   -0.7004    1.8294 H   0  0  0  0  0  0  0  0  0  0  0  0
    0.9789    0.5431    2.3256 H   0  0  0  0  0  0  0  0  0  0  0  0
    3.2606   -0.8953   -1.3692 H   0  0  0  0  0  0  0  0  0  0  0  0
    4.1488   -1.2063    0.1462 H   0  0  0  0  0  0  0  0  0  0  0  0
    4.3387    0.3781   -0.6897 H   0  0  0  0  0  0  0  0  0  0  0  0
  1 12  1  0  0  0  0
  1 11  1  0  0  0  0
  2 13  1  0  0  0  0
  2  1  1  0  0  0  0
  3  2  1  0  0  0  0
  3  4  1  0  0  0  0
  4 18  1  0  0  0  0
  4  5  1  0  0  0  0
  5 19  1  0  0  0  0
  5 20  1  0  0  0  0
  6  5  1  0  0  0  0
  7  6  2  0  0  0  0
  8  6  1  0  0  0  0
  9 22  1  0  0  0  0
  9  8  1  0  0  0  0
 10  1  1  0  0  0  0
 14  2  1  0  0  0  0
 15  3  1  0  0  0  0
 16  3  1  0  0  0  0
 17  4  1  0  0  0  0
 21  9  1  0  0  0  0
 23  9  1  0  0  0  0
M  END
>  <Charge>
0.0

>  <InChI>
1/C7H14O2/c1-3-4-5-6-7(8)9-2/h3-6H2,1-2H3

>  <Molecular Formula>
C_{7}H_{14}O_{2}

>  <Name>
METHYL HEXOATE

>  <SMILES>
CCCCCC(=O)OC

>  <logK (CHLOROFORM)>
5.31

>  <logK (DECANE)>
4.019

>  <logK (HEPTANE)>
4.127

>  <logK (HEXADECANE)>
3.984

>  <logK (HEXANE)>
4.139

>  <logK (METHANOL)>
4.28

>  <logK (OCTANE)>
4.065

>  <logK (TOLUENE)>
4.676

>  <mean polarizability>
14.36

>  <dipole moment>
1.81697387343

$$$$
072
 OpenBabel08101817183D

  6  5  0  0  0  0  0  0  0  0999 V2000
   -0.4874   -0.0149   -0.0124 C   0  0  0  0  0  0  0  0  0  0  0  0
    0.9648    0.0295    0.0245 C   0  0  0  0  0  0  0  0  0  0  0  0
    2.1253    0.0650    0.0539 N   0  0  0  0  0  0  0  0  0  0  0  0
   -0.8268   -0.7939   -0.7067 H   0  0  0  0  0  0  0  0  0  0  0  0
   -0.8867   -0.2361    0.9855 H   0  0  0  0  0  0  0  0  0  0  0  0
   -0.8892    0.9506   -0.3449 H   0  0  0  0  0  0  0  0  0  0  0  0
  1  2  1  0  0  0  0
  1  5  1  0  0  0  0
  2  3  3  0  0  0  0
  4  1  1  0  0  0  0
  6  1  1  0  0  0  0
M  END
>  <Charge>
0.0

>  <InChI>
1/C2H3N/c1-2-3/h1H3

>  <Molecular Formula>
C_{2}H_{3}N

>  <Name>
ACETONITRILE

>  <SMILES>
CC#N

>  <logK (1,4-DIOXANE)>
3.21

>  <logK (1-CHLOROBUTANE)>
2.662

>  <logK (1-METHYL-2-PIPERIDINONE)>
3.41

>  <logK (1-OCTANOL)>
2.31

>  <logK (2-ISOPROPOXYETHANOL)>
2.94915163989

>  <logK (2-PROPOXYETHANOL)>
2.92334913433

>  <logK (5,8,11,14-TETRAOXAOCTADECANE)>
2.815

>  <logK (ACETIC ACID)>
2.94

>  <logK (ACETONE)>
2.81

>  <logK (ACETOPHENONE)>
3.048

>  <logK (BUTANONE)>
3.27

>  <logK (CARBON TETRACHLORIDE)>
2.22

>  <logK (CHLOROBENZENE)>
2.74

>  <logK (CHLOROFORM)>
3.25

>  <logK (CYCLOHEXANONE)>
3.151

>  <logK (DIBUTYL ETHER)>
2.12

>  <logK (DICHLOROETHANE)>
3.15

>  <logK (DICHLOROMETHANE)>
3.446

>  <logK (DIETHYL ETHER)>
2.66

>  <logK (DIETHYLENE GLYCOL DIBUTYL ETHER)>
2.726

>  <logK (DIMETHYL SULFOXIDE)>
3.367

>  <logK (DIMETHYLFORMAMIDE)>
3.41

>  <logK (ETHANOL)>
2.9

>  <logK (ETHYL ACETATE)>
3.07

>  <logK (FORMAMIDE)>
3.2

>  <logK (HEPTANE)>
1.67

>  <logK (HEXADECANE)>
1.56

>  <logK (HEXANE)>
1.77

>  <logK (METHANOL)>
2.96

>  <logK (METHOXYETHANOL)>
3.157

>  <logK (METHYL ACETATE)>
3.324

>  <logK (METHYL TERT-BUTYL ETHER)>
2.69

>  <logK (N,N-DIBUTYLFORMAMID)>
2.99

>  <logK (N,N-DIMETHYLACETAMIDE)>
3.52

>  <logK (N-BUTANOL)>
2.6

>  <logK (N-METHYLACETAMIDE)>
3.1

>  <logK (OCTANE)>
1.59

>  <logK (P-XYLENE)>
2.522

>  <logK (PHENYLAMINE)>
3.432

>  <logK (PYRIDINE)>
3.25

>  <logK (SULFOLANE)>
3.307

>  <logK (TETRAETHYLENE GLYCOL DIMETHYL ETHER)>
3.177

>  <logK (TETRAHYDROFURAN)>
3.15

>  <logK (TOLUENE)>
2.679

>  <logK (TRIBUTYL PHOSPHATE)>
2.92

>  <mean polarizability>
4.4

>  <dipole moment>
3.98989275408

>  <experimental polarizability source>
@Article{Bosque2002, Title = {Polarizabilities of Solvents from the Chemical Composition}, Author = {Bosque, Ramon and Sales, Joaquim}, Journal = {Journal of Chemical Information and Computer Sciences}, Year = {2002}, Note = {PMID: 12377003}, Number = {5}, Pages = {1154-1163}, Volume = {42}, Doi = {10.1021/ci025528x}, Url = {https://doi.org/10.1021/ci025528x}}

>  <Formula>
C2H3N

$$$$
073
 OpenBabel08101817183D

  9  8  0  0  0  0  0  0  0  0999 V2000
   -1.0119    0.1729   -0.0756 C   0  0  0  0  0  0  0  0  0  0  0  0
    0.3516   -0.4684    0.2262 C   0  0  0  0  0  0  0  0  0  0  0  0
    1.4729    0.3660   -0.1923 C   0  0  0  0  0  0  0  0  0  0  0  0
    2.3533    1.0443   -0.5323 N   0  0  0  0  0  0  0  0  0  0  0  0
   -1.1315    0.3516   -1.1506 H   0  0  0  0  0  0  0  0  0  0  0  0
   -1.1172    1.1324    0.4440 H   0  0  0  0  0  0  0  0  0  0  0  0
   -1.8174   -0.4925    0.2574 H   0  0  0  0  0  0  0  0  0  0  0  0
    0.4571   -0.6654    1.3035 H   0  0  0  0  0  0  0  0  0  0  0  0
    0.4430   -1.4409   -0.2803 H   0  0  0  0  0  0  0  0  0  0  0  0
  1  2  1  0  0  0  0
  1  7  1  0  0  0  0
  1  6  1  0  0  0  0
  2  8  1  0  0  0  0
  3  2  1  0  0  0  0
  4  3  3  0  0  0  0
  5  1  1  0  0  0  0
  9  2  1  0  0  0  0
M  END
>  <Charge>
0.0

>  <InChI>
1/C3H5N/c1-2-3-4/h2H2,1H3

>  <Molecular Formula>
C_{3}H_{5}N

>  <Name>
PROPIONITRILE

>  <SMILES>
CCC#N

>  <logK (1-HEXADECENE)>
2.08619248977

>  <logK (1-OCTANOL)>
2.69

>  <logK (2,2,4-TRIMETHYLPENTANE)>
2.073

>  <logK (BENZONITRILE)>
3.532

>  <logK (CARBON TETRACHLORIDE)>
2.77

>  <logK (CHLOROBENZENE)>
3.26

>  <logK (DICHLOROETHANE)>
3.76

>  <logK (DIMETHYLFORMAMIDE)>
3.67

>  <logK (ETHYL ACETATE)>
3.43

>  <logK (ETHYLBENZENE)>
3.06

>  <logK (HEPTANE)>
2.1

>  <logK (HEXADECANE)>
2.05

>  <logK (HEXANE)>
2.225

>  <logK (METHANOL)>
3.61

>  <logK (METHYLCYCLOHEXANE)>
2.61

>  <logK (N,N-DIMETHYLACETAMIDE)>
3.66

>  <logK (N-BUTANOL)>
2.94

>  <logK (OCTANE)>
2.08

>  <logK (TOLUENE)>
3.144

>  <logK (TRIBUTYL PHOSPHATE)>
3.22

>  <mean polarizability>
6.29

>  <dipole moment>
4.09764443236

>  <Formula>
C3H5N

$$$$
074
 OpenBabel08101817183D

 12 11  0  0  0  0  0  0  0  0999 V2000
   -1.3543    0.4105    0.2026 C   0  0  0  0  0  0  0  0  0  0  0  0
   -0.3543   -0.7258    0.0050 C   0  0  0  0  0  0  0  0  0  0  0  0
    1.0116   -0.2499   -0.5299 C   0  0  0  0  0  0  0  0  0  0  0  0
    1.6997    0.6492    0.3909 C   0  0  0  0  0  0  0  0  0  0  0  0
    2.2318    1.3591    1.1418 N   0  0  0  0  0  0  0  0  0  0  0  0
   -0.9765    1.1524    0.9189 H   0  0  0  0  0  0  0  0  0  0  0  0
   -1.5581    0.9311   -0.7439 H   0  0  0  0  0  0  0  0  0  0  0  0
   -2.3089    0.0294    0.5866 H   0  0  0  0  0  0  0  0  0  0  0  0
   -0.7495   -1.4612   -0.7106 H   0  0  0  0  0  0  0  0  0  0  0  0
   -0.1959   -1.2611    0.9520 H   0  0  0  0  0  0  0  0  0  0  0  0
    0.8832    0.2754   -1.4894 H   0  0  0  0  0  0  0  0  0  0  0  0
    1.6710   -1.1088   -0.7242 H   0  0  0  0  0  0  0  0  0  0  0  0
  1  8  1  0  0  0  0
  1  6  1  0  0  0  0
  2  1  1  0  0  0  0
  2 10  1  0  0  0  0
  3  2  1  0  0  0  0
  3  4  1  0  0  0  0
  4  5  3  0  0  0  0
  7  1  1  0  0  0  0
  9  2  1  0  0  0  0
 11  3  1  0  0  0  0
 12  3  1  0  0  0  0
M  END
>  <Charge>
0.0

>  <InChI>
1/C4H7N/c1-2-3-4-5/h2-3H2,1H3

>  <Molecular Formula>
C_{4}H_{7}N

>  <Name>
BUTYRONITRILE

>  <SMILES>
CCCC#N

>  <logK ((\xb1)-2-BUTANOL)>
3.35

>  <logK (1-HEXADECENE)>
2.59113997955

>  <logK (1-OCTANOL)>
3.12

>  <logK (DECAN-1-OL)>
2.87

>  <logK (HEPTAN-1-OL)>
3.17

>  <logK (HEPTANE)>
2.699

>  <logK (HEXADECANE)>
2.54

>  <logK (HEXANE)>
2.748

>  <logK (HEXANOL)>
3.169

>  <logK (ISOBUTANOL)>
3.34

>  <logK (ISOPROPANOL)>
3.37

>  <logK (METHANOL)>
3.82

>  <logK (METHYLCYCLOHEXANE)>
3.12

>  <logK (N-BUTANOL)>
3.39

>  <logK (NONANOL)>
2.987

>  <logK (PENTANOL)>
3.28

>  <logK (TERT-BUTANOL)>
3.42

>  <logK (TRIBUTYL PHOSPHATE)>
3.62

>  <mean polarizability>
8.11

>  <dipole moment>
4.08582099231

>  <Formula>
C4H7N

$$$$
075
 OpenBabel08101817183D

  4  3  0  0  0  0  0  0  0  0999 V2000
   -0.0033   -0.0182    0.2922 N   0  0  0  0  0  0  0  0  0  0  0  0
    0.9334   -0.1380   -0.0960 H   0  0  0  0  0  0  0  0  0  0  0  0
   -0.5895   -0.7279   -0.1496 H   0  0  0  0  0  0  0  0  0  0  0  0
   -0.3408    0.8839   -0.0467 H   0  0  0  0  0  0  0  0  0  0  0  0
  2  1  1  0  0  0  0
  3  1  1  0  0  0  0
  4  1  1  0  0  0  0
M  END
>  <Charge>
0.0

>  <InChI>
1/H3N/h1H3

>  <Molecular Formula>
H_{3}N

>  <Name>
AMMONIA

>  <SMILES>
N

>  <logK (1-PROPANOL)>
1.76

>  <logK (ACETONE)>
1.48

>  <logK (BUTANONE)>
1.42

>  <logK (CARBON TETRACHLORIDE)>
0.79

>  <logK (CHLOROBENZENE)>
0.94

>  <logK (CHLOROFORM)>
1.77

>  <logK (ETHANOL)>
2.01

>  <logK (ETHYLENE GLYCOL)>
2.25

>  <logK (HEPTANE)>
0.93

>  <logK (HEXADECANE)>
0.269

>  <logK (ISOBUTANOL)>
1.86

>  <logK (ISOPROPANOL)>
1.74

>  <logK (METHANOL)>
2.26

>  <logK (N-BUTANOL)>
1.76

>  <logK (N-METHYLPYRROLIDONE)>
1.34

>  <logK (TRIBUTYL PHOSPHATE)>
0.85

>  <mean polarizability>
2.03

>  <dipole moment>
1.5181638137

$$$$
076
 OpenBabel08101817183D

 10  9  0  0  0  0  0  0  0  0999 V2000
    1.2092    0.1453   -0.0499 C   0  0  0  0  0  0  0  0  0  0  0  0
    0.0253   -0.4442    0.5609 N   0  0  0  0  0  0  0  0  0  0  0  0
   -1.1945   -0.1600   -0.1830 C   0  0  0  0  0  0  0  0  0  0  0  0
    1.1322    1.2394   -0.2260 H   0  0  0  0  0  0  0  0  0  0  0  0
    1.3927   -0.3318   -1.0239 H   0  0  0  0  0  0  0  0  0  0  0  0
    2.0870   -0.0422    0.5821 H   0  0  0  0  0  0  0  0  0  0  0  0
   -0.0708   -0.1041    1.5168 H   0  0  0  0  0  0  0  0  0  0  0  0
   -1.3741    0.9212   -0.3646 H   0  0  0  0  0  0  0  0  0  0  0  0
   -2.0611   -0.5693    0.3522 H   0  0  0  0  0  0  0  0  0  0  0  0
   -1.1462   -0.6541   -1.1647 H   0  0  0  0  0  0  0  0  0  0  0  0
  1  2  1  0  0  0  0
  1  6  1  0  0  0  0
  2  7  1  0  0  0  0
  3  9  1  0  0  0  0
  3  2  1  0  0  0  0
  4  1  1  0  0  0  0
  5  1  1  0  0  0  0
  8  3  1  0  0  0  0
 10  3  1  0  0  0  0
M  END
>  <Charge>
0.0

>  <InChI>
1/C2H7N/c1-3-2/h3H,1-2H3

>  <Molecular Formula>
C_{2}H_{7}N

>  <Name>
DIMETHYLAMINE

>  <SMILES>
CNC

>  <logK (1-OCTANOL)>
2.0

>  <logK (1-PROPANOL)>
2.19

>  <logK (BENZONITRILE)>
2.054

>  <logK (CARBON TETRACHLORIDE)>
2.02

>  <logK (CHLOROBENZENE)>
2.02

>  <logK (CHLOROFORM)>
2.71

>  <logK (DECANE)>
1.69

>  <logK (DIMETHYLFORMAMIDE)>
2.11

>  <logK (ETHANOL)>
2.4

>  <logK (HEXADECANE)>
1.6

>  <logK (HEXANE)>
1.821

>  <logK (METHANOL)>
2.57

>  <logK (TOLUENE)>
1.964

>  <mean polarizability>
5.84

>  <dipole moment>
0.919739427585

$$$$
077
 OpenBabel08101817183D

 16 15  0  0  0  0  0  0  0  0999 V2000
    2.1690   -0.0376   -0.1588 C   0  0  0  0  0  0  0  0  0  0  0  0
    1.0736   -1.0420    0.2259 C   0  0  0  0  0  0  0  0  0  0  0  0
   -0.2121   -0.4891    0.6491 N   0  0  0  0  0  0  0  0  0  0  0  0
   -0.9396    0.2623   -0.3707 C   0  0  0  0  0  0  0  0  0  0  0  0
   -2.2970    0.7159    0.1539 C   0  0  0  0  0  0  0  0  0  0  0  0
    3.0956   -0.5624   -0.4334 H   0  0  0  0  0  0  0  0  0  0  0  0
    2.4014    0.6321    0.6823 H   0  0  0  0  0  0  0  0  0  0  0  0
    1.8752    0.5840   -1.0152 H   0  0  0  0  0  0  0  0  0  0  0  0
    0.8758   -1.7136   -0.6255 H   0  0  0  0  0  0  0  0  0  0  0  0
    1.4409   -1.6833    1.0420 H   0  0  0  0  0  0  0  0  0  0  0  0
   -0.0847    0.0918    1.4797 H   0  0  0  0  0  0  0  0  0  0  0  0
   -1.0808   -0.4106   -1.2327 H   0  0  0  0  0  0  0  0  0  0  0  0
   -0.3860    1.1449   -0.7536 H   0  0  0  0  0  0  0  0  0  0  0  0
   -2.8979   -0.1449    0.4749 H   0  0  0  0  0  0  0  0  0  0  0  0
   -2.1817    1.3882    1.0172 H   0  0  0  0  0  0  0  0  0  0  0  0
   -2.8516    1.2643   -0.6194 H   0  0  0  0  0  0  0  0  0  0  0  0
  1  2  1  0  0  0  0
  1  7  1  0  0  0  0
  2  3  1  0  0  0  0
  2 10  1  0  0  0  0
  3 11  1  0  0  0  0
  4  5  1  0  0  0  0
  4  3  1  0  0  0  0
  5 14  1  0  0  0  0
  5 15  1  0  0  0  0
  6  1  1  0  0  0  0
  8  1  1  0  0  0  0
  9  2  1  0  0  0  0
 12  4  1  0  0  0  0
 13  4  1  0  0  0  0
 16  5  1  0  0  0  0
M  END
>  <Charge>
0.0

>  <InChI>
1/C4H11N/c1-3-5-4-2/h5H,3-4H2,1-2H3

>  <Molecular Formula>
C_{4}H_{11}N

>  <Name>
DIETHYLAMINE

>  <SMILES>
CCNCC

>  <logK (ACETONE)>
2.75

>  <logK (CARBON TETRACHLORIDE)>
3.023

>  <logK (CHLOROFORM)>
3.78

>  <logK (ETHYL ACETATE)>
2.75

>  <logK (ETHYLBENZENE)>
2.843

>  <logK (HEPTANE)>
2.52

>  <logK (HEXADECANE)>
2.395

>  <logK (HEXANE)>
2.62

>  <logK (METHANOL)>
3.73

>  <logK (TOLUENE)>
2.749

>  <mean polarizability>
9.66

>  <dipole moment>
0.887424354126

$$$$
078
 OpenBabel08101817183D

 22 21  0  0  0  0  0  0  0  0999 V2000
   -0.8929    2.3321   -0.1710 C   0  0  0  0  0  0  0  0  0  0  0  0
   -1.1810    0.8603    0.1137 C   0  0  0  0  0  0  0  0  0  0  0  0
    0.0021    0.0011   -0.0029 N   0  0  0  0  0  0  0  0  0  0  0  0
   -0.3669   -1.3959   -0.2547 C   0  0  0  0  0  0  0  0  0  0  0  0
   -0.7918   -1.6615   -1.6965 C   0  0  0  0  0  0  0  0  0  0  0  0
    0.8782    0.1264    1.1668 C   0  0  0  0  0  0  0  0  0  0  0  0
    2.3231   -0.2805    0.8897 C   0  0  0  0  0  0  0  0  0  0  0  0
   -0.4840    2.4540   -1.1825 H   0  0  0  0  0  0  0  0  0  0  0  0
   -1.8172    2.9214   -0.0943 H   0  0  0  0  0  0  0  0  0  0  0  0
   -0.1723    2.7610    0.5379 H   0  0  0  0  0  0  0  0  0  0  0  0
   -1.9256    0.5060   -0.6121 H   0  0  0  0  0  0  0  0  0  0  0  0
   -1.6531    0.7506    1.1165 H   0  0  0  0  0  0  0  0  0  0  0  0
   -1.1666   -1.7271    0.4462 H   0  0  0  0  0  0  0  0  0  0  0  0
    0.5094   -2.0196   -0.0311 H   0  0  0  0  0  0  0  0  0  0  0  0
    0.0160   -1.3938   -2.3899 H   0  0  0  0  0  0  0  0  0  0  0  0
   -1.6841   -1.0880   -1.9810 H   0  0  0  0  0  0  0  0  0  0  0  0
   -1.0306   -2.7255   -1.8319 H   0  0  0  0  0  0  0  0  0  0  0  0
    0.8688    1.1789    1.4815 H   0  0  0  0  0  0  0  0  0  0  0  0
    0.4760   -0.4552    2.0273 H   0  0  0  0  0  0  0  0  0  0  0  0
    2.4105   -1.3348    0.5949 H   0  0  0  0  0  0  0  0  0  0  0  0
    2.7457    0.3313    0.0822 H   0  0  0  0  0  0  0  0  0  0  0  0
    2.9360   -0.1415    1.7911 H   0  0  0  0  0  0  0  0  0  0  0  0
  1  9  1  0  0  0  0
  1  2  1  0  0  0  0
  1 10  1  0  0  0  0
  2 12  1  0  0  0  0
  3  2  1  0  0  0  0
  3  6  1  0  0  0  0
  4 14  1  0  0  0  0
  4  3  1  0  0  0  0
  4 13  1  0  0  0  0
  5  4  1  0  0  0  0
  6 18  1  0  0  0  0
  6 19  1  0  0  0  0
  7  6  1  0  0  0  0
  7 22  1  0  0  0  0
  8  1  1  0  0  0  0
 11  2  1  0  0  0  0
 15  5  1  0  0  0  0
 16  5  1  0  0  0  0
 17  5  1  0  0  0  0
 20  7  1  0  0  0  0
 21  7  1  0  0  0  0
M  END
>  <Charge>
0.0

>  <InChI>
1/C6H15N/c1-4-7(5-2)6-3/h4-6H2,1-3H3

>  <Molecular Formula>
C_{6}H_{15}N

>  <Name>
TRIETHYLAMINE

>  <SMILES>
CCN(CC)CC

>  <logK ((\xb1)-2-BUTANOL)>
3.53

>  <logK (1,4-DIOXANE)>
2.98

>  <logK (1-CHLOROBUTANE)>
3.351

>  <logK (1-PROPANOL)>
3.5

>  <logK (ACETONE)>
2.97

>  <logK (BENZONITRILE)>
2.977

>  <logK (BROMOBENZENE)>
3.28

>  <logK (BUTANONE)>
3.05

>  <logK (CARBON TETRACHLORIDE)>
3.26

>  <logK (CHLOROBENZENE)>
3.42

>  <logK (CHLOROFORM)>
4.22

>  <logK (CYCLOHEXANONE)>
3.014

>  <logK (DICHLOROETHANE)>
3.57

>  <logK (DIETHYL ETHER)>
3.26

>  <logK (DIMETHYLFORMAMIDE)>
2.62

>  <logK (ETHANOL)>
3.57

>  <logK (ETHYL ACETATE)>
3.13

>  <logK (HEPTANE)>
3.28

>  <logK (HEXADECANE)>
3.077

>  <logK (HEXANE)>
3.29

>  <logK (IODOBENZENE)>
3.18

>  <logK (ISOPROPANOL)>
3.31

>  <logK (METHANOL)>
3.84

>  <logK (N-BUTANOL)>
3.56

>  <logK (P-XYLENE)>
3.314

>  <logK (PENTANOL)>
3.64

>  <logK (PROPYLENE CARBONATE)>
2.13

>  <logK (TERT-BUTANOL)>
3.21

>  <logK (TETRAHYDROFURAN)>
3.37

>  <logK (TOLUENE)>
3.45

>  <logK (TRIETHYLAMINE)>
3.3

>  <experimental polarizability source>
@Article{Bosque2002, Title = {Polarizabilities of Solvents from the Chemical Composition}, Author = {Bosque, Ramon and Sales, Joaquim}, Journal = {Journal of Chemical Information and Computer Sciences}, Year = {2002}, Note = {PMID: 12377003}, Number = {5}, Pages = {1154-1163}, Volume = {42}, Doi = {10.1021/ci025528x}, Url = {https://doi.org/10.1021/ci025528x}}

>  <Formula>
C6H15N

>  <mean polarizability>
13.78

>  <dipole moment>
0.424359274104

$$$$
079
 OpenBabel08101817183D

  7  6  0  0  0  0  0  0  0  0999 V2000
   -0.6604   -0.0419    0.0243 C   0  0  0  0  0  0  0  0  0  0  0  0
    0.8381    0.0740   -0.0300 N   0  0  0  0  0  0  0  0  0  0  0  0
    1.3244    1.2023   -0.0031 O   0  0  0  0  0  0  0  0  0  0  0  0
    1.4670   -0.9796   -0.0980 O   0  0  0  0  0  0  0  0  0  0  0  0
   -0.9767   -0.5714   -0.8795 H   0  0  0  0  0  0  0  0  0  0  0  0
   -0.9064   -0.6444    0.9040 H   0  0  0  0  0  0  0  0  0  0  0  0
   -1.0859    0.9608    0.0822 H   0  0  0  0  0  0  0  0  0  0  0  0
  1  7  1  0  0  0  0
  1  6  1  0  0  0  0
  2  3  2  0  0  0  0
  2  1  1  0  0  0  0
  4  2  2  0  0  0  0
  5  1  1  0  0  0  0
M  END
>  <Charge>
0.0

>  <InChI>
1/CH3NO2/c1-2(3)4/h1H3

>  <Molecular Formula>
CH_{3}NO_{2}

>  <Name>
NITROMETHANE

>  <SMILES>
C[N+](=O)[O-]

>  <logK (1,4-DIOXANE)>
3.71

>  <logK (1-CHLOROBUTANE)>
2.975

>  <logK (1-OCTANOL)>
2.52

>  <logK (1-PROPANOL)>
2.85

>  <logK (2,2,4-TRIMETHYLPENTANE)>
1.973

>  <logK (2-PICOLINE)>
3.576

>  <logK (3-METHYLBUTAN-1-OL)>
2.73

>  <logK (ACETIC ACID)>
3.547

>  <logK (ACETONE)>
3.88

>  <logK (ACETOPHENONE)>
3.554

>  <logK (ANISOLE)>
3.367

>  <logK (BENZONITRILE)>
3.609

>  <logK (BENZYL ALCOHOL)>
3.279

>  <logK (BROMOBENZENE)>
3.04

>  <logK (BROMOETHANE)>
3.252

>  <logK (BUTANONE)>
3.65

>  <logK (BUTYROLACTONE)>
3.973

>  <logK (BUTYRONITRILE)>
3.713

>  <logK (CARBON DISULFIDE)>
2.338

>  <logK (CARBON TETRACHLORIDE)>
2.55

>  <logK (CHLOROBENZENE)>
3.06

>  <logK (CHLOROFORM)>
3.39

>  <logK (CYCLOHEXANONE)>
3.711

>  <logK (DECANE)>
1.92

>  <logK (DIBENZYL ETHER)>
3.189

>  <logK (DIBUTYL ETHER)>
2.59

>  <logK (DICHLOROETHANE)>
3.57

>  <logK (DICHLOROMETHANE)>
3.616

>  <logK (DIETHYL ETHER)>
3.09

>  <logK (DIETHYLDIGLYCOL)>
3.55

>  <logK (DIIODOMETHANE)>
2.78

>  <logK (DIISOPROPYL ETHER)>
2.806

>  <logK (DIMETHYL SULFOXIDE)>
4.1

>  <logK (DIMETHYLFORMAMIDE)>
4.07

>  <logK (ETHANOL)>
3.1

>  <logK (ETHYL ACETATE)>
3.61

>  <logK (ETHYL PHENYL ETHER)>
3.176

>  <logK (ETHYLENE GLYCOL)>
3.09

>  <logK (FLUOROBENZENE)>
3.28

>  <logK (FORMAMIDE)>
3.48

>  <logK (HEPTANE)>
1.92

>  <logK (HEXADECANE)>
1.892

>  <logK (HEXANE)>
2.02

>  <logK (IODOBENZENE)>
2.93

>  <logK (ISOPROPANOL)>
2.85

>  <logK (M-CRESOL)>
2.377

>  <logK (METHANOL)>
3.42

>  <logK (METHOXYETHANOL)>
3.644

>  <logK (METHYL ACETATE)>
3.763

>  <logK (N,N-DIMETHYLACETAMIDE)>
4.02

>  <logK (N-BUTANOL)>
2.82

>  <logK (N-METHYLPYRROLIDONE)>
4.03

>  <logK (NITROBENZENE)>
3.547

>  <logK (OCTANE)>
1.92

>  <logK (P-XYLENE)>
3.0

>  <logK (PENTANE)>
1.97

>  <logK (PERFLUOROBENZENE)>
3.037

>  <logK (PHENYLAMINE)>
3.687

>  <logK (PYRIDINE)>
3.695

>  <logK (SULFOLANE)>
3.87

>  <logK (TERT-BUTANOL)>
2.78

>  <logK (TETRAHYDROFURAN)>
3.67

>  <logK (TOLUENE)>
3.096

>  <logK (TRIETHYLAMINE)>
2.533

>  <mean polarizability>
4.87

>  <dipole moment>
3.43125982189

>  <experimental polarizability source>
@Article{Bosque2002, Title = {Polarizabilities of Solvents from the Chemical Composition}, Author = {Bosque, Ramon and Sales, Joaquim}, Journal = {Journal of Chemical Information and Computer Sciences}, Year = {2002}, Note = {PMID: 12377003}, Number = {5}, Pages = {1154-1163}, Volume = {42}, Doi = {10.1021/ci025528x}, Url = {https://doi.org/10.1021/ci025528x}}

>  <Formula>
CH3NO2

$$$$
080
 OpenBabel08101817183D

  3  2  0  0  0  0  0  0  0  0999 V2000
    0.0010    0.3970   -0.0000 O   0  0  0  0  0  0  0  0  0  0  0  0
    0.7639   -0.2004   -0.0000 H   0  0  0  0  0  0  0  0  0  0  0  0
   -0.7649   -0.1966   -0.0000 H   0  0  0  0  0  0  0  0  0  0  0  0
  1  2  1  0  0  0  0
  1  3  1  0  0  0  0
M  END
>  <Charge>
0.0

>  <InChI>
1/H2O/h1H2

>  <Molecular Formula>
H_{2}O

>  <Name>
WATER

>  <SMILES>
O

>  <logK (1,4-DIOXANE)>
3.09

>  <logK (1-HEXADECENE)>
0.461

>  <logK (5,8,11,14-TETRAOXAOCTADECANE)>
2.825

>  <logK (CARBON TETRACHLORIDE)>
0.64

>  <logK (CHLOROFORM)>
1.54

>  <logK (DECANE)>
0.35

>  <logK (DIETHYLENE GLYCOL DIBUTYL ETHER)>
2.749

>  <logK (DIMETHYLFORMAMIDE)>
4.07

>  <logK (ETHANOL)>
3.72

>  <logK (FORMAMIDE)>
4.16

>  <logK (HEPTANE)>
0.43

>  <logK (HEXANE)>
0.54

>  <logK (METHANOL)>
4.07

>  <logK (N-METHYLACETAMIDE)>
4.25

>  <logK (N-METHYLFORMAMIDE)>
3.87

>  <logK (OCTANE)>
0.5

>  <logK (PENTANE)>
0.5

>  <logK (PROPYLENE CARBONATE)>
3.06

>  <logK (TETRAETHYLENE GLYCOL DIMETHYL ETHER)>
3.212

>  <logK (TOLUENE)>
1.239

>  <logK (TRIBUTYL PHOSPHATE)>
3.09

>  <mean polarizability>
1.36

>  <dipole moment>
1.84938288657

>  <Formula>
H2O

$$$$
081
 OpenBabel08101817183D

  6  5  0  0  0  0  0  0  0  0999 V2000
   -0.3608   -0.0249   -0.0144 C   0  0  0  0  0  0  0  0  0  0  0  0
    0.9938   -0.4486   -0.1623 O   0  0  0  0  0  0  0  0  0  0  0  0
   -0.6169    0.2022    1.0341 H   0  0  0  0  0  0  0  0  0  0  0  0
   -0.5951    0.8552   -0.6367 H   0  0  0  0  0  0  0  0  0  0  0  0
   -0.9891   -0.8587   -0.3485 H   0  0  0  0  0  0  0  0  0  0  0  0
    1.5682    0.2747    0.1278 H   0  0  0  0  0  0  0  0  0  0  0  0
  1  3  1  0  0  0  0
  2  1  1  0  0  0  0
  2  6  1  0  0  0  0
  4  1  1  0  0  0  0
  5  1  1  0  0  0  0
M  END
>  <Charge>
0.0

>  <InChI>
1/CH4O/c1-2/h2H,1H3

>  <Molecular Formula>
CH_{4}O

>  <Name>
METHANOL

>  <SMILES>
CO

>  <logK ((\xb1)-2-BUTANOL)>
3.29

>  <logK (1,4-DIOXANE)>
2.81

>  <logK (1-ETHOXYPROPANE)>
2.439

>  <logK (1-METHYL-2-PIPERIDINONE)>
3.54

>  <logK (1-OCTANOL)>
2.84

>  <logK (1-PROPANOL)>
3.15

>  <logK (2,2,4-TRIMETHYLPENTANE)>
1.056

>  <logK (2-ETHOXYETHANOL)>
3.179

>  <logK (2-PENTANOL)>
3.17

>  <logK (3-METHYLBUTAN-1-OL)>
3.068

>  <logK (4-FORMYLMORPHOLINE)>
3.13

>  <logK (5,8,11,14-TETRAOXAOCTADECANE)>
2.554

>  <logK (ACETONE)>
3.03

>  <logK (ACETOPHENONE)>
2.567

>  <logK (BENZONITRILE)>
2.48

>  <logK (BROMOBENZENE)>
1.69

>  <logK (BUTANONE)>
2.81

>  <logK (CARBON TETRACHLORIDE)>
1.643

>  <logK (CHLOROBENZENE)>
1.78

>  <logK (CHLOROFORM)>
2.51

>  <logK (DECAN-1-OL)>
2.53

>  <logK (DECANE)>
1.03

>  <logK (DIBUTYL ETHER)>
1.94

>  <logK (DICHLOROETHANE)>
2.16

>  <logK (DICHLOROMETHANE)>
2.29

>  <logK (DIETHYL ETHER)>
2.48

>  <logK (DIETHYLENE GLYCOL DIBUTYL ETHER)>
2.521

>  <logK (DIIODOMETHANE)>
1.88

>  <logK (DIISOPROPYL ETHER)>
2.392

>  <logK (DIMETHYLFORMAMIDE)>
3.4

>  <logK (EPSILON-CAPROLACTONE)>
2.896

>  <logK (ETHANOL)>
3.4

>  <logK (ETHYL ACETATE)>
2.7

>  <logK (ETHYLBENZENE)>
1.704

>  <logK (FORMAMIDE)>
3.3

>  <logK (HEPTANE)>
1.2

>  <logK (HEXADECANE)>
0.922

>  <logK (HEXANE)>
1.148

>  <logK (IODOBENZENE)>
1.59

>  <logK (ISOBUTANOL)>
3.16

>  <logK (ISOPROPANOL)>
3.28

>  <logK (M-XYLENE)>
1.777

>  <logK (METHANOL)>
3.6

>  <logK (METHOXYETHANOL)>
3.116

>  <logK (METHYL ACETATE)>
2.764

>  <logK (METHYL TERT-BUTYL ETHER)>
2.53

>  <logK (N,N-DIBUTYLFORMAMID)>
3.01

>  <logK (N,N-DIETHYLACETAMIDE)>
3.46

>  <logK (N,N-DIMETHYLACETAMIDE)>
3.58

>  <logK (N-BUTANOL)>
3.02

>  <logK (N-ETHYLACETAMIDE)>
3.37

>  <logK (N-ETHYLFORMAMIDE)>
3.31

>  <logK (N-METHYLACETAMIDE)>
3.46

>  <logK (N-METHYLFORMAMIDE)>
3.33

>  <logK (N-METHYLPYRROLIDONE)>
3.43

>  <logK (OCTANE)>
1.06

>  <logK (PENTANOL)>
3.07

>  <logK (PHENYLAMINE)>
2.828

>  <logK (PROPYL ETHER)>
2.156

>  <logK (PYRIDINE)>
3.383

>  <logK (SULFOLANE)>
2.803

>  <logK (TERT-AMYL METHYL ETHER)>
2.431

>  <logK (TERT-BUTANOL)>
3.39

>  <logK (TETRADECANE)>
0.88

>  <logK (TETRAETHYLENE GLYCOL DIMETHYL ETHER)>
2.782

>  <logK (TETRAHYDROFURAN)>
2.84

>  <logK (TOLUENE)>
1.776

>  <logK (TRIBUTYL PHOSPHATE)>
3.07

>  <Formula>
CH4O

>  <mean polarizability>
3.16

>  <dipole moment>
1.6045836991

$$$$
082
 OpenBabel08101817183D

  9  8  0  0  0  0  0  0  0  0999 V2000
   -0.9199    0.0753    0.0095 C   0  0  0  0  0  0  0  0  0  0  0  0
    0.5129   -0.4215   -0.1196 C   0  0  0  0  0  0  0  0  0  0  0  0
    1.4641    0.6390   -0.2660 O   0  0  0  0  0  0  0  0  0  0  0  0
   -1.6198   -0.7700    0.0759 H   0  0  0  0  0  0  0  0  0  0  0  0
   -1.0477    0.6833    0.9177 H   0  0  0  0  0  0  0  0  0  0  0  0
   -1.1979    0.6899   -0.8565 H   0  0  0  0  0  0  0  0  0  0  0  0
    0.6271   -1.0325   -1.0254 H   0  0  0  0  0  0  0  0  0  0  0  0
    0.7758   -1.0630    0.7412 H   0  0  0  0  0  0  0  0  0  0  0  0
    1.4055    1.1994    0.5232 H   0  0  0  0  0  0  0  0  0  0  0  0
  1  4  1  0  0  0  0
  1  5  1  0  0  0  0
  2  1  1  0  0  0  0
  2  8  1  0  0  0  0
  3  2  1  0  0  0  0
  3  9  1  0  0  0  0
  6  1  1  0  0  0  0
  7  2  1  0  0  0  0
M  END
>  <Charge>
0.0

>  <InChI>
1/C2H6O/c1-2-3/h3H,2H2,1H3

>  <Molecular Formula>
C_{2}H_{6}O

>  <Name>
ETHANOL

>  <SMILES>
CCO

>  <logK (1,4-DIOXANE)>
3.16

>  <logK (1-CHLOROBUTANE)>
2.254

>  <logK (1-METHYL-2-PIPERIDINONE)>
3.76

>  <logK (1-OCTANOL)>
3.2

>  <logK (1-PROPANOL)>
3.51

>  <logK (2,2,4-TRIMETHYLPENTANE)>
1.788

>  <logK (2-ETHOXYETHANOL)>
3.346

>  <logK (2-PICOLINE)>
3.623

>  <logK (3-METHYLBUTAN-1-OL)>
3.51

>  <logK (4-FORMYLMORPHOLINE)>
3.29

>  <logK (5,8,11,14-TETRAOXAOCTADECANE)>
2.828

>  <logK (ACETIC ACID)>
3.81

>  <logK (ACETONE)>
3.24

>  <logK (ACETONITRILE)>
3.179

>  <logK (ACETOPHENONE)>
2.905

>  <logK (ANISOLE)>
2.528

>  <logK (BENZONITRILE)>
2.817

>  <logK (BENZYL ALCOHOL)>
3.467

>  <logK (BROMOBENZENE)>
1.97

>  <logK (BUTANONE)>
3.17

>  <logK (BUTYROLACTONE)>
3.145

>  <logK (BUTYRONITRILE)>
3.005

>  <logK (CARBON DISULFIDE)>
1.806

>  <logK (CARBON TETRACHLORIDE)>
1.925

>  <logK (CHLOROBENZENE)>
1.97

>  <logK (CHLOROFORM)>
2.94

>  <logK (CYCLOHEXANONE)>
3.162

>  <logK (DECAN-1-OL)>
3.003

>  <logK (DECANE)>
1.58

>  <logK (DIBENZYL ETHER)>
2.401

>  <logK (DIBUTYL ETHER)>
2.39

>  <logK (DICHLOROETHANE)>
2.67

>  <logK (DICHLOROMETHANE)>
2.719

>  <logK (DIETHYLDIGLYCOL)>
3.025

>  <logK (DIETHYLENE GLYCOL DIBUTYL ETHER)>
2.806

>  <logK (DIIODOMETHANE)>
2.13

>  <logK (DIISOPROPYL ETHER)>
2.672

>  <logK (DIMETHYL SULFOXIDE)>
3.913

>  <logK (DIMETHYLFORMAMIDE)>
3.73

>  <logK (DODECANE)>
1.51

>  <logK (EPSILON-CAPROLACTONE)>
3.135

>  <logK (ETHANOL)>
3.73

>  <logK (ETHYL ACETATE)>
3.02

>  <logK (ETHYL PHENYL ETHER)>
3.391

>  <logK (ETHYLBENZENE)>
2.214

>  <logK (ETHYLENE GLYCOL)>
3.48

>  <logK (FLUOROBENZENE)>
2.38

>  <logK (HEPTANE)>
1.64

>  <logK (HEXADECANE)>
1.485

>  <logK (HEXANE)>
1.672

>  <logK (IODOBENZENE)>
1.75

>  <logK (ISOBUTANOL)>
3.51

>  <logK (ISOPROPANOL)>
3.55

>  <logK (M-CRESOL)>
4.008

>  <logK (M-XYLENE)>
2.201

>  <logK (METHANOL)>
3.89

>  <logK (METHOXYETHANOL)>
3.55

>  <logK (METHYL ACETATE)>
3.008

>  <logK (METHYL TERT-BUTYL ETHER)>
2.89

>  <logK (METHYLCYCLOHEXANE)>
1.89

>  <logK (N,N-DIBUTYLFORMAMID)>
3.32

>  <logK (N,N-DIETHYLACETAMIDE)>
3.71

>  <logK (N,N-DIMETHYLACETAMIDE)>
3.82

>  <logK (N-BUTANOL)>
3.56

>  <logK (N-ETHYLACETAMIDE)>
3.63

>  <logK (N-ETHYLFORMAMIDE)>
3.59

>  <logK (N-METHYLACETAMIDE)>
3.65

>  <logK (N-METHYLFORMAMIDE)>
3.56

>  <logK (N-METHYLPYRROLIDONE)>
3.65

>  <logK (NITROBENZENE)>
2.519

>  <logK (NITROETHANE)>
2.819

>  <logK (NITROMETHANE)>
2.845

>  <logK (OCTANE)>
1.6

>  <logK (P-XYLENE)>
2.224

>  <logK (PENTANE)>
1.63

>  <logK (PENTANOL)>
3.41

>  <logK (PERFLUOROBENZENE)>
2.041

>  <logK (PHENYLAMINE)>
3.151

>  <logK (PROPYL ETHER)>
2.526

>  <logK (PYRIDINE)>
3.681

>  <logK (SULFOLANE)>
2.975

>  <logK (TERT-BUTANOL)>
3.7

>  <logK (TETRADECANE)>
1.35

>  <logK (TETRAETHYLENE GLYCOL DIMETHYL ETHER)>
3.013

>  <logK (TETRAHYDROFURAN)>
3.34

>  <logK (TOLUENE)>
2.202

>  <logK (TRIBUTYL PHOSPHATE)>
3.35

>  <logK (TRIETHYLAMINE)>
3.055

>  <mean polarizability>
5.1

>  <dipole moment>
1.65475835768

>  <experimental polarizability source>
@Article{Bosque2002, Title = {Polarizabilities of Solvents from the Chemical Composition}, Author = {Bosque, Ramon and Sales, Joaquim}, Journal = {Journal of Chemical Information and Computer Sciences}, Year = {2002}, Note = {PMID: 12377003}, Number = {5}, Pages = {1154-1163}, Volume = {42}, Doi = {10.1021/ci025528x}, Url = {https://doi.org/10.1021/ci025528x}}

>  <Formula>
C2H6O

$$$$
083
 OpenBabel08101817183D

 12 11  0  0  0  0  0  0  0  0999 V2000
    1.3630    0.5299    0.0998 C   0  0  0  0  0  0  0  0  0  0  0  0
    0.4004   -0.6541    0.1874 C   0  0  0  0  0  0  0  0  0  0  0  0
   -1.0587   -0.2453    0.3155 C   0  0  0  0  0  0  0  0  0  0  0  0
   -1.4471    0.4465   -0.8800 O   0  0  0  0  0  0  0  0  0  0  0  0
    1.1477    1.1475   -0.7807 H   0  0  0  0  0  0  0  0  0  0  0  0
    1.2800    1.1727    0.9885 H   0  0  0  0  0  0  0  0  0  0  0  0
    2.4048    0.1899    0.0303 H   0  0  0  0  0  0  0  0  0  0  0  0
    0.5045   -1.2939   -0.7025 H   0  0  0  0  0  0  0  0  0  0  0  0
    0.6486   -1.2825    1.0570 H   0  0  0  0  0  0  0  0  0  0  0  0
   -1.6862   -1.1425    0.4643 H   0  0  0  0  0  0  0  0  0  0  0  0
   -1.1869    0.4079    1.1995 H   0  0  0  0  0  0  0  0  0  0  0  0
   -2.3699    0.7237   -0.7843 H   0  0  0  0  0  0  0  0  0  0  0  0
  1  2  1  0  0  0  0
  1  6  1  0  0  0  0
  2  3  1  0  0  0  0
  2  9  1  0  0  0  0
  3 10  1  0  0  0  0
  3 11  1  0  0  0  0
  4 12  1  0  0  0  0
  4  3  1  0  0  0  0
  5  1  1  0  0  0  0
  7  1  1  0  0  0  0
  8  2  1  0  0  0  0
M  END
>  <Charge>
0.0

>  <InChI>
1/C3H8O/c1-2-3-4/h4H,2-3H2,1H3

>  <Molecular Formula>
C_{3}H_{8}O

>  <Name>
1-PROPANOL

>  <SMILES>
CCCO

>  <logK (1,4-DIOXANE)>
3.31

>  <logK (1-HEXADECENE)>
2.174

>  <logK (1-OCTANOL)>
3.68

>  <logK (1-PROPANOL)>
3.98

>  <logK (2,2,4-TRIMETHYLPENTANE)>
2.199

>  <logK (2-ETHOXYETHANOL)>
3.91

>  <logK (2-PENTANOL)>
3.916

>  <logK (4-FORMYLMORPHOLINE)>
3.69

>  <logK (BROMOBENZENE)>
2.76

>  <logK (BUTANONE)>
3.64

>  <logK (BUTYL ACETATE)>
3.41

>  <logK (CARBON TETRACHLORIDE)>
2.64

>  <logK (CHLOROBENZENE)>
2.82

>  <logK (CHLOROFORM)>
3.26

>  <logK (DECAN-1-OL)>
3.515

>  <logK (DECANE)>
2.023

>  <logK (DICHLOROETHANE)>
3.18

>  <logK (DIIODOMETHANE)>
2.59

>  <logK (DIISOPROPYL ETHER)>
3.22

>  <logK (DIMETHYLFORMAMIDE)>
4.08

>  <logK (DODECANE)>
2.03

>  <logK (EPSILON-CAPROLACTONE)>
3.549

>  <logK (ETHANOL)>
4.2

>  <logK (ETHYLBENZENE)>
2.701

>  <logK (FORMAMIDE)>
3.55

>  <logK (HEPTANE)>
2.19

>  <logK (HEXADECANE)>
2.097

>  <logK (HEXANE)>
2.211

>  <logK (IODOBENZENE)>
2.6

>  <logK (ISOBUTANOL)>
3.99

>  <logK (ISOPROPANOL)>
4.02

>  <logK (M-XYLENE)>
2.728

>  <logK (METHANOL)>
4.36

>  <logK (METHYL ACETATE)>
3.581

>  <logK (METHYL TERT-BUTYL ETHER)>
3.37

>  <logK (METHYLCYCLOHEXANE)>
2.51

>  <logK (N-BUTANOL)>
3.83

>  <logK (N-METHYLPYRROLIDONE)>
4.19

>  <logK (OCTANE)>
2.13

>  <logK (P-XYLENE)>
2.736

>  <logK (PENTANOL)>
3.98

>  <logK (PROPYL ETHER)>
3.081

>  <logK (PYRIDINE)>
4.101

>  <logK (TERT-BUTANOL)>
4.07

>  <logK (TETRADECANE)>
1.94

>  <logK (TETRAHYDROFURAN)>
3.8

>  <logK (TOLUENE)>
2.746

>  <logK (TRIBUTYL PHOSPHATE)>
3.9

>  <mean polarizability>
6.9

>  <dipole moment>
1.44188152786

>  <experimental polarizability source>
@Article{Bosque2002, Title = {Polarizabilities of Solvents from the Chemical Composition}, Author = {Bosque, Ramon and Sales, Joaquim}, Journal = {Journal of Chemical Information and Computer Sciences}, Year = {2002}, Note = {PMID: 12377003}, Number = {5}, Pages = {1154-1163}, Volume = {42}, Doi = {10.1021/ci025528x}, Url = {https://doi.org/10.1021/ci025528x}}

>  <Formula>
C3H8O

$$$$
084
 OpenBabel08101817183D

 15 14  0  0  0  0  0  0  0  0999 V2000
    1.7035    0.4962    0.3288 C   0  0  0  0  0  0  0  0  0  0  0  0
    0.8119   -0.7427    0.4410 C   0  0  0  0  0  0  0  0  0  0  0  0
   -0.3764   -0.7852   -0.5317 C   0  0  0  0  0  0  0  0  0  0  0  0
   -1.5555    0.1141   -0.1883 C   0  0  0  0  0  0  0  0  0  0  0  0
   -1.2003    1.4899   -0.3981 O   0  0  0  0  0  0  0  0  0  0  0  0
    2.5517    0.4325    1.0250 H   0  0  0  0  0  0  0  0  0  0  0  0
    2.1137    0.5911   -0.6872 H   0  0  0  0  0  0  0  0  0  0  0  0
    1.1459    1.4152    0.5437 H   0  0  0  0  0  0  0  0  0  0  0  0
    1.4272   -1.6400    0.2691 H   0  0  0  0  0  0  0  0  0  0  0  0
    0.4304   -0.8350    1.4718 H   0  0  0  0  0  0  0  0  0  0  0  0
   -0.7682   -1.8142   -0.5696 H   0  0  0  0  0  0  0  0  0  0  0  0
   -0.0378   -0.5449   -1.5528 H   0  0  0  0  0  0  0  0  0  0  0  0
   -2.4170   -0.1571   -0.8254 H   0  0  0  0  0  0  0  0  0  0  0  0
   -1.8528   -0.0516    0.8650 H   0  0  0  0  0  0  0  0  0  0  0  0
   -1.9762    2.0318   -0.1914 H   0  0  0  0  0  0  0  0  0  0  0  0
  1  2  1  0  0  0  0
  1  8  1  0  0  0  0
  1  6  1  0  0  0  0
  2 10  1  0  0  0  0
  3  4  1  0  0  0  0
  3  2  1  0  0  0  0
  4 14  1  0  0  0  0
  5 15  1  0  0  0  0
  5  4  1  0  0  0  0
  7  1  1  0  0  0  0
  9  2  1  0  0  0  0
 11  3  1  0  0  0  0
 12  3  1  0  0  0  0
 13  4  1  0  0  0  0
M  END
>  <Charge>
0.0

>  <InChI>
1/C4H10O/c1-2-3-4-5/h5H,2-4H2,1H3

>  <Molecular Formula>
C_{4}H_{10}O

>  <Name>
N-BUTANOL

>  <SMILES>
CCCCO

>  <logK ((\xb1)-2-BUTANOL)>
4.47

>  <logK (1-CHLOROBUTANE)>
3.375

>  <logK (1-HEXADECENE)>
2.68

>  <logK (1-OCTANOL)>
4.19

>  <logK (1-PROPANOL)>
4.47

>  <logK (2,2,4-TRIMETHYLPENTANE)>
2.752

>  <logK (BROMOBENZENE)>
2.99

>  <logK (BUTANONE)>
4.15

>  <logK (CARBON TETRACHLORIDE)>
3.17

>  <logK (CHLOROBENZENE)>
3.16

>  <logK (CHLOROFORM)>
3.88

>  <logK (DECAN-1-OL)>
4.195

>  <logK (DECANE)>
2.763

>  <logK (DIBUTYL ETHER)>
3.43

>  <logK (DIIODOMETHANE)>
3.03

>  <logK (DIISOPROPYL ETHER)>
3.77

>  <logK (DODECANE)>
2.59

>  <logK (ETHYLBENZENE)>
3.246

>  <logK (FORMAMIDE)>
3.83

>  <logK (HEPTANE)>
2.75

>  <logK (HEXADECANE)>
2.601

>  <logK (HEXANE)>
2.742

>  <logK (IODOBENZENE)>
2.97

>  <logK (ISOBUTANOL)>
4.49

>  <logK (ISOPROPANOL)>
4.47

>  <logK (M-XYLENE)>
3.209

>  <logK (METHANOL)>
4.56

>  <logK (METHYL TERT-BUTYL ETHER)>
3.9

>  <logK (METHYLCYCLOHEXANE)>
3.06

>  <logK (N,N-DIBUTYLFORMAMID)>
4.33

>  <logK (N,N-DIMETHYLACETAMIDE)>
4.57

>  <logK (N-BUTANOL)>
4.47

>  <logK (N-METHYLACETAMIDE)>
4.47

>  <logK (O-XYLENE)>
3.272

>  <logK (OCTANE)>
2.65

>  <logK (P-XYLENE)>
3.289

>  <logK (PENTANOL)>
4.45

>  <logK (PHENYLAMINE)>
3.947

>  <logK (PROPYL ETHER)>
3.623

>  <logK (PYRIDINE)>
4.558

>  <logK (SULFOLANE)>
3.707

>  <logK (TERT-BUTANOL)>
4.61

>  <logK (TETRADECANE)>
2.46

>  <logK (TOLUENE)>
3.326

>  <mean polarizability>
8.75

>  <dipole moment>
1.51985884447

>  <Formula>
C4H10O

$$$$
085
 OpenBabel08101817183D

 18 17  0  0  0  0  0  0  0  0999 V2000
    2.4952    0.6832   -0.2297 C   0  0  0  0  0  0  0  0  0  0  0  0
    1.1436    0.0593   -0.5789 C   0  0  0  0  0  0  0  0  0  0  0  0
    0.2924   -0.2408    0.6582 C   0  0  0  0  0  0  0  0  0  0  0  0
   -1.0383   -0.9425    0.3603 C   0  0  0  0  0  0  0  0  0  0  0  0
   -2.0563   -0.1025   -0.4101 C   0  0  0  0  0  0  0  0  0  0  0  0
   -2.4443    1.0949    0.2740 O   0  0  0  0  0  0  0  0  0  0  0  0
    2.3655    1.6302    0.3137 H   0  0  0  0  0  0  0  0  0  0  0  0
    3.0879    0.8946   -1.1300 H   0  0  0  0  0  0  0  0  0  0  0  0
    3.0880    0.0138    0.4106 H   0  0  0  0  0  0  0  0  0  0  0  0
    0.5970    0.7367   -1.2533 H   0  0  0  0  0  0  0  0  0  0  0  0
    1.3031   -0.8738   -1.1449 H   0  0  0  0  0  0  0  0  0  0  0  0
    0.0934    0.6981    1.1988 H   0  0  0  0  0  0  0  0  0  0  0  0
    0.8774   -0.8735    1.3455 H   0  0  0  0  0  0  0  0  0  0  0  0
   -0.8533   -1.8662   -0.2148 H   0  0  0  0  0  0  0  0  0  0  0  0
   -1.5022   -1.2664    1.3082 H   0  0  0  0  0  0  0  0  0  0  0  0
   -2.9420   -0.7194   -0.6473 H   0  0  0  0  0  0  0  0  0  0  0  0
   -1.6380    0.2400   -1.3667 H   0  0  0  0  0  0  0  0  0  0  0  0
   -2.8689    0.8344    1.1063 H   0  0  0  0  0  0  0  0  0  0  0  0
  1  7  1  0  0  0  0
  1  9  1  0  0  0  0
  2  1  1  0  0  0  0
  2  3  1  0  0  0  0
  3 12  1  0  0  0  0
  3 13  1  0  0  0  0
  4  3  1  0  0  0  0
  4 15  1  0  0  0  0
  5  6  1  0  0  0  0
  5  4  1  0  0  0  0
  6 18  1  0  0  0  0
  8  1  1  0  0  0  0
 10  2  1  0  0  0  0
 11  2  1  0  0  0  0
 14  4  1  0  0  0  0
 16  5  1  0  0  0  0
 17  5  1  0  0  0  0
M  END
>  <Charge>
0.0

>  <InChI>
1/C5H12O/c1-2-3-4-5-6/h6H,2-5H2,1H3

>  <Molecular Formula>
C_{5}H_{12}O

>  <Name>
PENTANOL

>  <SMILES>
CCCCCO

>  <logK (1-OCTANOL)>
4.69

>  <logK (1-PROPANOL)>
4.97

>  <logK (2,2,4-TRIMETHYLPENTANE)>
3.207

>  <logK (BROMOBENZENE)>
3.78

>  <logK (BUTYL ACETATE)>
4.6

>  <logK (CARBON TETRACHLORIDE)>
3.748

>  <logK (CHLOROBENZENE)>
3.92

>  <logK (CHLOROFORM)>
4.4

>  <logK (DECAN-1-OL)>
4.681

>  <logK (DECANE)>
3.049

>  <logK (DICHLOROETHANE)>
4.07

>  <logK (DIIODOMETHANE)>
3.5

>  <logK (DODECANE)>
3.11

>  <logK (ETHYLBENZENE)>
3.8

>  <logK (FORMAMIDE)>
4.14

>  <logK (HEPTANE)>
3.3

>  <logK (HEXADECANE)>
3.106

>  <logK (HEXANE)>
3.387

>  <logK (HEXANOL)>
4.9

>  <logK (IODOBENZENE)>
3.75

>  <logK (ISOBUTANOL)>
5.02

>  <logK (ISOPROPANOL)>
5.01

>  <logK (M-XYLENE)>
3.822

>  <logK (METHANOL)>
4.93

>  <logK (N-BUTANOL)>
4.96

>  <logK (O-XYLENE)>
3.816

>  <logK (OCTANE)>
3.128

>  <logK (PENTANOL)>
4.95

>  <logK (TERT-BUTANOL)>
5.1

>  <logK (TOLUENE)>
3.86

>  <mean polarizability>
10.66

>  <dipole moment>
1.55705185362

>  <Formula>
C5H12O

$$$$
086
 OpenBabel08101817183D

 21 20  0  0  0  0  0  0  0  0999 V2000
    2.8213    0.6551    0.3745 C   0  0  0  0  0  0  0  0  0  0  0  0
    1.6724   -0.2272   -0.1141 C   0  0  0  0  0  0  0  0  0  0  0  0
    0.5795    0.5612   -0.8414 C   0  0  0  0  0  0  0  0  0  0  0  0
   -0.5606   -0.2921   -1.4136 C   0  0  0  0  0  0  0  0  0  0  0  0
   -1.3890   -1.0744   -0.3832 C   0  0  0  0  0  0  0  0  0  0  0  0
   -2.1239   -0.2119    0.6318 C   0  0  0  0  0  0  0  0  0  0  0  0
   -3.0516    0.6290   -0.0703 O   0  0  0  0  0  0  0  0  0  0  0  0
    2.4610    1.4249    1.0726 H   0  0  0  0  0  0  0  0  0  0  0  0
    3.3086    1.1741   -0.4636 H   0  0  0  0  0  0  0  0  0  0  0  0
    3.5900    0.0680    0.8954 H   0  0  0  0  0  0  0  0  0  0  0  0
    2.0650   -1.0055   -0.7896 H   0  0  0  0  0  0  0  0  0  0  0  0
    1.2398   -0.7636    0.7452 H   0  0  0  0  0  0  0  0  0  0  0  0
    1.0415    1.1220   -1.6706 H   0  0  0  0  0  0  0  0  0  0  0  0
    0.1709    1.3281   -0.1621 H   0  0  0  0  0  0  0  0  0  0  0  0
   -0.1396   -1.0111   -2.1353 H   0  0  0  0  0  0  0  0  0  0  0  0
   -1.2397    0.3567   -1.9854 H   0  0  0  0  0  0  0  0  0  0  0  0
   -2.1342   -1.6868   -0.9142 H   0  0  0  0  0  0  0  0  0  0  0  0
   -0.7504   -1.7789    0.1723 H   0  0  0  0  0  0  0  0  0  0  0  0
   -2.6564   -0.8624    1.3488 H   0  0  0  0  0  0  0  0  0  0  0  0
   -1.4081    0.4019    1.2087 H   0  0  0  0  0  0  0  0  0  0  0  0
   -3.4966    1.1929    0.5789 H   0  0  0  0  0  0  0  0  0  0  0  0
  1 10  1  0  0  0  0
  1  8  1  0  0  0  0
  2  1  1  0  0  0  0
  2 12  1  0  0  0  0
  3 14  1  0  0  0  0
  3  2  1  0  0  0  0
  4  3  1  0  0  0  0
  4  5  1  0  0  0  0
  5 18  1  0  0  0  0
  5  6  1  0  0  0  0
  6 20  1  0  0  0  0
  6 19  1  0  0  0  0
  7 21  1  0  0  0  0
  7  6  1  0  0  0  0
  9  1  1  0  0  0  0
 11  2  1  0  0  0  0
 13  3  1  0  0  0  0
 15  4  1  0  0  0  0
 16  4  1  0  0  0  0
 17  5  1  0  0  0  0
M  END
>  <Charge>
0.0

>  <InChI>
1/C6H14O/c1-2-3-4-5-6-7/h7H,2-6H2,1H3

>  <Molecular Formula>
C_{6}H_{14}O

>  <Name>
HEXANOL

>  <SMILES>
CCCCCCO

>  <logK (1-CHLOROBUTANE)>
4.385

>  <logK (1-OCTANOL)>
5.18

>  <logK (2,2,4-TRIMETHYLPENTANE)>
3.738

>  <logK (BROMOBENZENE)>
4.37

>  <logK (BUTANONE)>
5.1

>  <logK (BUTYL ACETATE)>
5.01

>  <logK (CARBON TETRACHLORIDE)>
4.271

>  <logK (CHLOROBENZENE)>
4.42

>  <logK (CHLOROFORM)>
4.92

>  <logK (DECAN-1-OL)>
5.124

>  <logK (DECANE)>
3.661

>  <logK (DICHLOROETHANE)>
4.45

>  <logK (DODECANE)>
3.57

>  <logK (ETHYLBENZENE)>
4.323

>  <logK (FORMAMIDE)>
4.43

>  <logK (HEPTANE)>
3.87

>  <logK (HEXADECANE)>
3.61

>  <logK (HEXANE)>
3.678

>  <logK (HEXANOL)>
5.24

>  <logK (IODOBENZENE)>
4.22

>  <logK (METHANOL)>
5.29

>  <logK (O-XYLENE)>
4.332

>  <logK (OCTANE)>
3.661

>  <logK (PROPYL ETHER)>
4.622

>  <logK (TOLUENE)>
4.52

>  <Formula>
C6H14O

>  <dipole moment>
1.33562913056

>  <mean polarizability>
12.44

$$$$
087
 OpenBabel08101817183D

 24 23  0  0  0  0  0  0  0  0999 V2000
   -2.7580    0.9986   -0.1954 C   0  0  0  0  0  0  0  0  0  0  0  0
   -2.6028   -0.2065    0.7338 C   0  0  0  0  0  0  0  0  0  0  0  0
   -1.4205   -1.1330    0.4139 C   0  0  0  0  0  0  0  0  0  0  0  0
   -0.0243   -0.4860    0.5344 C   0  0  0  0  0  0  0  0  0  0  0  0
    0.5732   -0.0283   -0.8034 C   0  0  0  0  0  0  0  0  0  0  0  0
    1.9120    0.7168   -0.7110 C   0  0  0  0  0  0  0  0  0  0  0  0
    3.1382   -0.1294   -0.3689 C   0  0  0  0  0  0  0  0  0  0  0  0
    3.1543   -0.6650    0.9610 O   0  0  0  0  0  0  0  0  0  0  0  0
   -1.8853    1.6648   -0.1497 H   0  0  0  0  0  0  0  0  0  0  0  0
   -2.8809    0.6824   -1.2417 H   0  0  0  0  0  0  0  0  0  0  0  0
   -3.6387    1.5969    0.0768 H   0  0  0  0  0  0  0  0  0  0  0  0
   -2.4994    0.1485    1.7729 H   0  0  0  0  0  0  0  0  0  0  0  0
   -3.5309   -0.7995    0.7097 H   0  0  0  0  0  0  0  0  0  0  0  0
   -1.4783   -1.9973    1.0927 H   0  0  0  0  0  0  0  0  0  0  0  0
   -1.5461   -1.5447   -0.6024 H   0  0  0  0  0  0  0  0  0  0  0  0
    0.6752   -1.1879    1.0066 H   0  0  0  0  0  0  0  0  0  0  0  0
   -0.0834    0.3800    1.2174 H   0  0  0  0  0  0  0  0  0  0  0  0
   -0.1498    0.6218   -1.3201 H   0  0  0  0  0  0  0  0  0  0  0  0
    0.7010   -0.9089   -1.4565 H   0  0  0  0  0  0  0  0  0  0  0  0
    2.1206    1.1949   -1.6831 H   0  0  0  0  0  0  0  0  0  0  0  0
    1.8313    1.5460    0.0154 H   0  0  0  0  0  0  0  0  0  0  0  0
    3.1828   -1.0086   -1.0292 H   0  0  0  0  0  0  0  0  0  0  0  0
    4.0540    0.4622   -0.5523 H   0  0  0  0  0  0  0  0  0  0  0  0
    3.1557    0.0822    1.5790 H   0  0  0  0  0  0  0  0  0  0  0  0
  1  9  1  0  0  0  0
  1 11  1  0  0  0  0
  1  2  1  0  0  0  0
  2 12  1  0  0  0  0
  3  4  1  0  0  0  0
  3  2  1  0  0  0  0
  3 14  1  0  0  0  0
  4 16  1  0  0  0  0
  4 17  1  0  0  0  0
  5  6  1  0  0  0  0
  5  4  1  0  0  0  0
  6  7  1  0  0  0  0
  6 21  1  0  0  0  0
  7  8  1  0  0  0  0
  8 24  1  0  0  0  0
 10  1  1  0  0  0  0
 13  2  1  0  0  0  0
 15  3  1  0  0  0  0
 18  5  1  0  0  0  0
 19  5  1  0  0  0  0
 20  6  1  0  0  0  0
 22  7  1  0  0  0  0
 23  7  1  0  0  0  0
M  END
>  <Charge>
0.0

>  <InChI>
1/C7H16O/c1-2-3-4-5-6-7-8/h8H,2-7H2,1H3

>  <Molecular Formula>
C_{7}H_{16}O

>  <Name>
HEPTAN-1-OL

>  <SMILES>
CCCCCCCO

>  <logK (2,2,4-TRIMETHYLPENTANE)>
4.269

>  <logK (BROMOBENZENE)>
4.88

>  <logK (CARBON TETRACHLORIDE)>
4.661

>  <logK (CHLOROBENZENE)>
4.95

>  <logK (CHLOROFORM)>
5.5

>  <logK (DODECANE)>
3.92

>  <logK (ETHYLBENZENE)>
5.033

>  <logK (FORMAMIDE)>
4.68

>  <logK (HEPTANE)>
4.099

>  <logK (HEXADECANE)>
4.115

>  <logK (HEXANE)>
4.099

>  <logK (HEXANOL)>
5.92

>  <logK (IODOBENZENE)>
4.77

>  <logK (METHANOL)>
5.57

>  <logK (TOLUENE)>
4.947

>  <Formula>
C7H16O

>  <dipole moment>
1.43787031046

>  <mean polarizability>
14.34

$$$$
088
 OpenBabel08101817183D

 27 26  0  0  0  0  0  0  0  0999 V2000
    4.4546   -0.3372    0.2358 C   0  0  0  0  0  0  0  0  0  0  0  0
    3.2143   -0.5575   -0.6301 C   0  0  0  0  0  0  0  0  0  0  0  0
    1.9362    0.0146   -0.0132 C   0  0  0  0  0  0  0  0  0  0  0  0
    0.6844   -0.2154   -0.8623 C   0  0  0  0  0  0  0  0  0  0  0  0
   -0.5897    0.3633   -0.2441 C   0  0  0  0  0  0  0  0  0  0  0  0
   -1.8303    0.1474   -1.1166 C   0  0  0  0  0  0  0  0  0  0  0  0
   -3.1314    0.7649   -0.5834 C   0  0  0  0  0  0  0  0  0  0  0  0
   -3.8150    0.0132    0.5499 C   0  0  0  0  0  0  0  0  0  0  0  0
   -3.0325    0.1141    1.7496 O   0  0  0  0  0  0  0  0  0  0  0  0
    5.3567   -0.7523   -0.2340 H   0  0  0  0  0  0  0  0  0  0  0  0
    4.6328    0.7340    0.4096 H   0  0  0  0  0  0  0  0  0  0  0  0
    4.3416   -0.8151    1.2197 H   0  0  0  0  0  0  0  0  0  0  0  0
    3.0774   -1.6365   -0.8104 H   0  0  0  0  0  0  0  0  0  0  0  0
    3.3715   -0.1036   -1.6225 H   0  0  0  0  0  0  0  0  0  0  0  0
    2.0682    1.0972    0.1559 H   0  0  0  0  0  0  0  0  0  0  0  0
    1.7847   -0.4290    0.9857 H   0  0  0  0  0  0  0  0  0  0  0  0
    0.5517   -1.2992   -1.0253 H   0  0  0  0  0  0  0  0  0  0  0  0
    0.8391    0.2224   -1.8640 H   0  0  0  0  0  0  0  0  0  0  0  0
   -0.7560   -0.0742    0.7508 H   0  0  0  0  0  0  0  0  0  0  0  0
   -0.4542    1.4459   -0.0782 H   0  0  0  0  0  0  0  0  0  0  0  0
   -1.6309    0.5695   -2.1158 H   0  0  0  0  0  0  0  0  0  0  0  0
   -1.9851   -0.9342   -1.2755 H   0  0  0  0  0  0  0  0  0  0  0  0
   -3.8630    0.8192   -1.4055 H   0  0  0  0  0  0  0  0  0  0  0  0
   -2.9524    1.8034   -0.2603 H   0  0  0  0  0  0  0  0  0  0  0  0
   -3.9461   -1.0476    0.2630 H   0  0  0  0  0  0  0  0  0  0  0  0
   -4.8201    0.4422    0.7146 H   0  0  0  0  0  0  0  0  0  0  0  0
   -3.5065   -0.3497    2.4555 H   0  0  0  0  0  0  0  0  0  0  0  0
  1 11  1  0  0  0  0
  1 12  1  0  0  0  0
  2  3  1  0  0  0  0
  2  1  1  0  0  0  0
  3 15  1  0  0  0  0
  3 16  1  0  0  0  0
  4  5  1  0  0  0  0
  4  3  1  0  0  0  0
  5 20  1  0  0  0  0
  5 19  1  0  0  0  0
  6  7  1  0  0  0  0
  6  5  1  0  0  0  0
  7 24  1  0  0  0  0
  7  8  1  0  0  0  0
  8 26  1  0  0  0  0
  8  9  1  0  0  0  0
  9 27  1  0  0  0  0
 10  1  1  0  0  0  0
 13  2  1  0  0  0  0
 14  2  1  0  0  0  0
 17  4  1  0  0  0  0
 18  4  1  0  0  0  0
 21  6  1  0  0  0  0
 22  6  1  0  0  0  0
 23  7  1  0  0  0  0
 25  8  1  0  0  0  0
M  END
>  <Charge>
0.0

>  <InChI>
1/C8H18O/c1-2-3-4-5-6-7-8-9/h9H,2-8H2,1H3

>  <Molecular Formula>
C_{8}H_{18}O

>  <Name>
1-OCTANOL

>  <SMILES>
CCCCCCCCO

>  <logK (1-CHLOROBUTANE)>
5.292

>  <logK (1-OCTANOL)>
6.03

>  <logK (2,2,4-TRIMETHYLPENTANE)>
4.782

>  <logK (BUTANONE)>
6.01

>  <logK (CARBON TETRACHLORIDE)>
5.09

>  <logK (FORMAMIDE)>
4.76

>  <logK (HEPTANE)>
4.7

>  <logK (HEXADECANE)>
4.619

>  <logK (HEXANOL)>
6.29

>  <logK (METHANOL)>
5.89

>  <logK (NONANOL)>
6.197

>  <experimental polarizability source>
@Article{Bosque2002, Title = {Polarizabilities of Solvents from the Chemical Composition}, Author = {Bosque, Ramon and Sales, Joaquim}, Journal = {Journal of Chemical Information and Computer Sciences}, Year = {2002}, Note = {PMID: 12377003}, Number = {5}, Pages = {1154-1163}, Volume = {42}, Doi = {10.1021/ci025528x}, Url = {https://doi.org/10.1021/ci025528x}}

>  <Formula>
C8H18O

>  <dipole moment>
1.59612240394

>  <mean polarizability>
16.51

$$$$
089
 OpenBabel08101817183D

 30 29  0  0  0  0  0  0  0  0999 V2000
   -3.0319    1.3381    0.8241 C   0  0  0  0  0  0  0  0  0  0  0  0
   -3.2490    0.5454   -0.4669 C   0  0  0  0  0  0  0  0  0  0  0  0
   -2.0799   -0.3697   -0.8552 C   0  0  0  0  0  0  0  0  0  0  0  0
   -0.7851    0.3703   -1.2064 C   0  0  0  0  0  0  0  0  0  0  0  0
    0.3301   -0.5329   -1.7534 C   0  0  0  0  0  0  0  0  0  0  0  0
    0.8413   -1.6179   -0.7910 C   0  0  0  0  0  0  0  0  0  0  0  0
    1.4075   -1.1123    0.5435 C   0  0  0  0  0  0  0  0  0  0  0  0
    2.6483   -0.2262    0.4107 C   0  0  0  0  0  0  0  0  0  0  0  0
    3.2055    0.2564    1.7484 C   0  0  0  0  0  0  0  0  0  0  0  0
    2.2935    1.0802    2.4863 O   0  0  0  0  0  0  0  0  0  0  0  0
   -2.1960    2.0455    0.7372 H   0  0  0  0  0  0  0  0  0  0  0  0
   -2.8119    0.6680    1.6682 H   0  0  0  0  0  0  0  0  0  0  0  0
   -3.9261    1.9198    1.0869 H   0  0  0  0  0  0  0  0  0  0  0  0
   -3.4517    1.2430   -1.2966 H   0  0  0  0  0  0  0  0  0  0  0  0
   -4.1562   -0.0697   -0.3605 H   0  0  0  0  0  0  0  0  0  0  0  0
   -2.3806   -0.9823   -1.7218 H   0  0  0  0  0  0  0  0  0  0  0  0
   -1.8953   -1.0788   -0.0314 H   0  0  0  0  0  0  0  0  0  0  0  0
   -0.4176    0.9189   -0.3248 H   0  0  0  0  0  0  0  0  0  0  0  0
   -1.0128    1.1390   -1.9640 H   0  0  0  0  0  0  0  0  0  0  0  0
   -0.0333   -1.0282   -2.6691 H   0  0  0  0  0  0  0  0  0  0  0  0
    1.1730    0.0994   -2.0746 H   0  0  0  0  0  0  0  0  0  0  0  0
    1.6184   -2.2029   -1.3106 H   0  0  0  0  0  0  0  0  0  0  0  0
    0.0272   -2.3285   -0.5797 H   0  0  0  0  0  0  0  0  0  0  0  0
    0.6337   -0.5671    1.1046 H   0  0  0  0  0  0  0  0  0  0  0  0
    1.6668   -1.9842    1.1665 H   0  0  0  0  0  0  0  0  0  0  0  0
    3.4469   -0.7783   -0.1149 H   0  0  0  0  0  0  0  0  0  0  0  0
    2.4291    0.6553   -0.2163 H   0  0  0  0  0  0  0  0  0  0  0  0
    3.4101   -0.6012    2.4068 H   0  0  0  0  0  0  0  0  0  0  0  0
    4.1633    0.7848    1.5900 H   0  0  0  0  0  0  0  0  0  0  0  0
    2.1325    1.8813    1.9641 H   0  0  0  0  0  0  0  0  0  0  0  0
  1 13  1  0  0  0  0
  1 12  1  0  0  0  0
  2 15  1  0  0  0  0
  2  1  1  0  0  0  0
  3  2  1  0  0  0  0
  3 17  1  0  0  0  0
  4  3  1  0  0  0  0
  4 18  1  0  0  0  0
  5  4  1  0  0  0  0
  5  6  1  0  0  0  0
  6 23  1  0  0  0  0
  6  7  1  0  0  0  0
  7 24  1  0  0  0  0
  7 25  1  0  0  0  0
  8  7  1  0  0  0  0
  8  9  1  0  0  0  0
  9 28  1  0  0  0  0
  9 10  1  0  0  0  0
 11  1  1  0  0  0  0
 14  2  1  0  0  0  0
 16  3  1  0  0  0  0
 19  4  1  0  0  0  0
 20  5  1  0  0  0  0
 21  5  1  0  0  0  0
 22  6  1  0  0  0  0
 26  8  1  0  0  0  0
 27  8  1  0  0  0  0
 29  9  1  0  0  0  0
 30 10  1  0  0  0  0
M  END
>  <Charge>
0.0

>  <InChI>
1/C9H20O/c1-2-3-4-5-6-7-8-9-10/h10H,2-9H2,1H3

>  <Molecular Formula>
C_{9}H_{20}O

>  <Name>
NONANOL

>  <SMILES>
CCCCCCCCCO

>  <logK (DECAN-1-OL)>
6.57

>  <logK (FORMAMIDE)>
5.29

>  <logK (HEXADECANE)>
5.124

>  <logK (METHANOL)>
6.25

>  <logK (NONANOL)>
6.609

>  <Formula>
C9H20O

>  <dipole moment>
1.56164422386

>  <mean polarizability>
17.98

$$$$
090
 OpenBabel08101817183D

  9  8  0  0  0  0  0  0  0  0999 V2000
    0.4165   -0.4097    0.0607 C   0  0  0  0  0  0  0  0  0  0  0  0
   -0.9014    0.3015   -0.2135 C   0  0  0  0  0  0  0  0  0  0  0  0
   -1.3838    0.9301    0.8834 F   0  0  0  0  0  0  0  0  0  0  0  0
   -1.8297   -0.6148   -0.6058 F   0  0  0  0  0  0  0  0  0  0  0  0
   -0.7928    1.2228   -1.1985 F   0  0  0  0  0  0  0  0  0  0  0  0
    1.3673    0.5570    0.4667 O   0  0  0  0  0  0  0  0  0  0  0  0
    0.2165   -1.1655    0.8390 H   0  0  0  0  0  0  0  0  0  0  0  0
    0.7023   -0.9248   -0.8720 H   0  0  0  0  0  0  0  0  0  0  0  0
    2.2050    0.1034    0.6402 H   0  0  0  0  0  0  0  0  0  0  0  0
  1  6  1  0  0  0  0
  1  7  1  0  0  0  0
  2  1  1  0  0  0  0
  2  3  1  0  0  0  0
  4  2  1  0  0  0  0
  5  2  1  0  0  0  0
  6  9  1  0  0  0  0
  8  1  1  0  0  0  0
M  END
>  <Charge>
0.0

>  <InChI>
1/C2H3F3O/c3-2(4,5)1-6/h6H,1H2

>  <Molecular Formula>
C_{2}H_{3}F_{3}O

>  <Name>
2,2,2-TRIFLUOROETHANOL

>  <SMILES>
C(C(F)(F)F)O

>  <logK (1,4-DIOXANE)>
4.13

>  <logK (DIIODOMETHANE)>
1.86

>  <logK (DIMETHYLFORMAMIDE)>
5.08

>  <logK (HEXADECANE)>
1.224

>  <logK (METHANOL)>
4.19

>  <logK (N,N-DIMETHYLACETAMIDE)>
4.99

>  <mean polarizability>
5.35

>  <dipole moment>
3.28432684661

$$$$
091
 OpenBabel08101817183D

 12 11  0  0  0  0  0  0  0  0999 V2000
   -0.0464    0.2802   -0.4757 C   0  0  0  0  0  0  0  0  0  0  0  0
    1.3344    0.0591    0.1884 C   0  0  0  0  0  0  0  0  0  0  0  0
    1.8070   -1.1913    0.0057 F   0  0  0  0  0  0  0  0  0  0  0  0
    2.2292    0.9209   -0.3438 F   0  0  0  0  0  0  0  0  0  0  0  0
    1.2804    0.2996    1.5243 F   0  0  0  0  0  0  0  0  0  0  0  0
   -1.1317   -0.7331   -0.0374 C   0  0  0  0  0  0  0  0  0  0  0  0
   -1.4476   -0.5769    1.2745 F   0  0  0  0  0  0  0  0  0  0  0  0
   -2.2574   -0.5202   -0.7545 F   0  0  0  0  0  0  0  0  0  0  0  0
   -0.7567   -2.0148   -0.2293 F   0  0  0  0  0  0  0  0  0  0  0  0
   -0.4878    1.5967   -0.2749 O   0  0  0  0  0  0  0  0  0  0  0  0
    0.0963    0.1439   -1.5567 H   0  0  0  0  0  0  0  0  0  0  0  0
   -0.6197    1.7357    0.6793 H   0  0  0  0  0  0  0  0  0  0  0  0
  1 10  1  0  0  0  0
  1  6  1  0  0  0  0
  1  2  1  0  0  0  0
  2  5  1  0  0  0  0
  3  2  1  0  0  0  0
  4  2  1  0  0  0  0
  6  7  1  0  0  0  0
  8  6  1  0  0  0  0
  9  6  1  0  0  0  0
 10 12  1  0  0  0  0
 11  1  1  0  0  0  0
M  END
>  <Charge>
0.0

>  <InChI>
1/C3H2F6O/c4-2(5,6)1(10)3(7,8)9/h1,10H

>  <Molecular Formula>
C_{3}H_{2}F_{6}O

>  <Name>
HEXAFLUOROISOPROPANOL

>  <SMILES>
C(C(F)(F)F)(C(F)(F)F)O

>  <logK (DIIODOMETHANE)>
1.8

>  <logK (HEXADECANE)>
1.392

>  <logK (METHANOL)>
4.79

>  <mean polarizability>
7.5

>  <dipole moment>
0.55529126683

$$$$
092
 OpenBabel08101817183D

  9  8  0  0  0  0  0  0  0  0999 V2000
   -0.8965   -0.3285   -0.1991 C   0  0  0  0  0  0  0  0  0  0  0  0
    0.2790    0.6238   -0.0289 C   0  0  0  0  0  0  0  0  0  0  0  0
    1.5649    0.0355    1.1355 S   0  0  0  0  0  0  0  0  0  0  0  0
   -0.5680   -1.2924   -0.6108 H   0  0  0  0  0  0  0  0  0  0  0  0
   -1.3884   -0.5241    0.7620 H   0  0  0  0  0  0  0  0  0  0  0  0
   -1.6398    0.0969   -0.8903 H   0  0  0  0  0  0  0  0  0  0  0  0
    0.7531    0.8573   -0.9905 H   0  0  0  0  0  0  0  0  0  0  0  0
   -0.0478    1.5774    0.4075 H   0  0  0  0  0  0  0  0  0  0  0  0
    1.9434   -1.0458    0.4145 H   0  0  0  0  0  0  0  0  0  0  0  0
  1  2  1  0  0  0  0
  1  5  1  0  0  0  0
  2  8  1  0  0  0  0
  2  3  1  0  0  0  0
  4  1  1  0  0  0  0
  6  1  1  0  0  0  0
  7  2  1  0  0  0  0
  9  3  1  0  0  0  0
M  END
>  <Charge>
0.0

>  <InChI>
1/C2H6S/c1-2-3/h3H,2H2,1H3

>  <Molecular Formula>
C_{2}H_{6}S

>  <Name>
ETHANETHIOL

>  <SMILES>
CCS

>  <logK (2,2,4-TRIMETHYLPENTANE)>
2.294

>  <logK (HEXADECANE)>
2.173

>  <logK (METHANOL)>
2.2

>  <mean polarizability>
7.37

>  <dipole moment>
1.62256586112

$$$$
093
 OpenBabel08101817183D

  7  6  0  0  0  0  0  0  0  0999 V2000
    0.9508    0.4501   -1.2009 F   0  0  0  0  0  0  0  0  0  0  0  0
   -0.0001    0.0001   -0.0000 S   0  0  0  0  0  0  0  0  0  0  0  0
    0.8012   -1.3761    0.1185 F   0  0  0  0  0  0  0  0  0  0  0  0
    1.0016    0.6730    1.0453 F   0  0  0  0  0  0  0  0  0  0  0  0
   -0.9511   -0.4508    1.2009 F   0  0  0  0  0  0  0  0  0  0  0  0
   -0.8008    1.3766   -0.1186 F   0  0  0  0  0  0  0  0  0  0  0  0
   -1.0015   -0.6728   -1.0453 F   0  0  0  0  0  0  0  0  0  0  0  0
  1  2  1  0  0  0  0
  2  3  1  0  0  0  0
  2  4  1  0  0  0  0
  2  5  1  0  0  0  0
  6  2  1  0  0  0  0
  7  2  1  0  0  0  0
M  END
>  <Charge>
0.0

>  <InChI>
1/F6S/c1-7(2,3,4,5)6

>  <Molecular Formula>
F_{6}S

>  <Name>
SULFUR HEXAFLUORIDE

>  <SMILES>
FS(F)(F)(F)(F)F

>  <logK ((\xb1)-2-BUTANOL)>
-0.19

>  <logK (1,4-DIOXANE)>
-0.39

>  <logK (1-OCTANOL)>
-0.3

>  <logK (1-PROPANOL)>
-0.13

>  <logK (2,2,4-TRIMETHYLPENTANE)>
0.346

>  <logK (ACETONE)>
0.05

>  <logK (BENZONITRILE)>
-0.521

>  <logK (BROMOBENZENE)>
-0.49

>  <logK (CARBON TETRACHLORIDE)>
0.02

>  <logK (CHLOROBENZENE)>
-0.26

>  <logK (CYCLOHEXANONE)>
-0.379

>  <logK (CYCLOOCTANE)>
-0.275

>  <logK (DECAN-1-OL)>
-0.344

>  <logK (DECANE)>
0.041

>  <logK (DIMETHYLFORMAMIDE)>
-0.61

>  <logK (DODECANE)>
-0.05

>  <logK (ETHANOL)>
-0.12

>  <logK (HEPTAN-1-OL)>
-0.27

>  <logK (HEPTANE)>
0.227

>  <logK (HEXANE)>
0.295

>  <logK (HEXANOL)>
-0.25

>  <logK (ISOBUTANOL)>
-0.07

>  <logK (M-XYLENE)>
-0.142

>  <logK (METHANOL)>
-0.21

>  <logK (METHYLCYCLOHEXANE)>
0.13

>  <logK (N,N-DIMETHYLACETAMIDE)>
-0.56

>  <logK (N-BUTANOL)>
-0.19

>  <logK (N-METHYLFORMAMIDE)>
-0.75

>  <logK (NONANE)>
0.102

>  <logK (NONANOL)>
-0.318

>  <logK (O-XYLENE)>
-0.2

>  <logK (OCTANE)>
0.161

>  <logK (P-XYLENE)>
-0.141

>  <logK (PENTANOL)>
-0.21

>  <logK (TERT-BUTANOL)>
0.08

>  <logK (TETRADECANE)>
-0.117

>  <logK (TETRAETHYLENE GLYCOL DIMETHYL ETHER)>
-0.669

>  <logK (TETRAHYDROFURAN)>
-0.04

>  <logK (TETRAHYDROPYRAN)>
-0.038

>  <logK (TOLUENE)>
-0.109

>  <logK (UNDECANE)>
-0.01

>  <logK (UNDECANOL)>
-0.361

>  <mean polarizability>
4.89

>  <dipole moment>
0.00179945225402

$$$$
094
 OpenBabel08101817183D

 12 12  0  0  0  0  0  0  0  0999 V2000
    0.1863    1.3842    0.0088 C   0  0  0  0  0  0  0  0  0  0  0  0
   -1.1056    0.8535    0.0002 C   0  0  0  0  0  0  0  0  0  0  0  0
   -1.2919   -0.5308   -0.0086 C   0  0  0  0  0  0  0  0  0  0  0  0
   -0.1863   -1.3842   -0.0088 C   0  0  0  0  0  0  0  0  0  0  0  0
    1.1056   -0.8535   -0.0002 C   0  0  0  0  0  0  0  0  0  0  0  0
    1.2919    0.5308    0.0086 C   0  0  0  0  0  0  0  0  0  0  0  0
    0.3317    2.4648    0.0157 H   0  0  0  0  0  0  0  0  0  0  0  0
   -1.9687    1.5197    0.0004 H   0  0  0  0  0  0  0  0  0  0  0  0
   -2.3004   -0.9451   -0.0153 H   0  0  0  0  0  0  0  0  0  0  0  0
   -0.3317   -2.4648   -0.0157 H   0  0  0  0  0  0  0  0  0  0  0  0
    1.9687   -1.5197   -0.0004 H   0  0  0  0  0  0  0  0  0  0  0  0
    2.3004    0.9451    0.0153 H   0  0  0  0  0  0  0  0  0  0  0  0
  1  7  1  0  0  0  0
  2  8  1  0  0  0  0
  2  1  2  0  0  0  0
  3  2  1  0  0  0  0
  4  3  2  0  0  0  0
  4  5  1  0  0  0  0
  5  6  2  0  0  0  0
  6  1  1  0  0  0  0
  6 12  1  0  0  0  0
  9  3  1  0  0  0  0
 10  4  1  0  0  0  0
 11  5  1  0  0  0  0
M  END
>  <Charge>
0.0

>  <InChI>
1/C6H6/c1-2-4-6-5-3-1/h1-6H

>  <Molecular Formula>
C_{6}H_{6}

>  <Name>
BENZENE

>  <SMILES>
c1ccccc1

>  <logK ((\xb1)-1,2-PROPANEDIOL)>
2.314

>  <logK ((\xb1)-2-BUTANOL)>
2.77

>  <logK (1,4-DIOXANE)>
3.32

>  <logK (1,5-DIMETHYL-2-PYRROLIDINONE)>
3.271

>  <logK (1-CHLOROBUTANE)>
3.267

>  <logK (1-ETHYL-2-PYRROLIDINONE)>
3.295

>  <logK (1-HEXADECENE)>
2.806

>  <logK (1-METHYL-2-PIPERIDINONE)>
3.28

>  <logK (1-OCTANOL)>
2.8

>  <logK (1-PROPANOL)>
2.78

>  <logK (2,2,4-TRIMETHYLPENTANE)>
2.894

>  <logK (2-BUTOXYETHANOL)>
3.0

>  <logK (2-ETHOXYETHANOL)>
3.025

>  <logK (2-ISOPROPOXYETHANOL)>
3.02626478673

>  <logK (2-PROPOXYETHANOL)>
3.02389357546

>  <logK (4-FORMYLMORPHOLINE)>
2.95

>  <logK (4-METHYLPENTAN-2-ONE)>
3.253

>  <logK (5,8,11,14-TETRAOXAOCTADECANE)>
3.104

>  <logK (ACETIC ACID)>
2.824

>  <logK (ACETONE)>
3.21

>  <logK (ACETOPHENONE)>
3.142

>  <logK (BENZONITRILE)>
3.184

>  <logK (BUTANONE)>
3.29

>  <logK (BUTYL ACETATE)>
2.84

>  <logK (CARBON TETRACHLORIDE)>
3.29

>  <logK (CHLOROBENZENE)>
3.24

>  <logK (CHLOROFORM)>
3.51

>  <logK (CYCLOHEXANONE)>
3.297

>  <logK (DECAN-1-OL)>
2.635

>  <logK (DECANE)>
2.92

>  <logK (DIBUTYL ETHER)>
3.01

>  <logK (DICHLOROETHANE)>
3.32

>  <logK (DICHLOROMETHANE)>
3.517

>  <logK (DIETHYLENE GLYCOL DIBUTYL ETHER)>
3.079

>  <logK (DIIODOMETHANE)>
2.81

>  <logK (DIISOPROPYL ETHER)>
3.081

>  <logK (DIMETHYLFORMAMIDE)>
3.26

>  <logK (EPSILON-CAPROLACTONE)>
3.103

>  <logK (ETHANOL)>
2.78

>  <logK (ETHYL ACETATE)>
3.24

>  <logK (ETHYLBENZENE)>
3.181

>  <logK (ETHYLBENZOATE)>
3.154

>  <logK (ETHYLENE GLYCOL)>
2.03

>  <logK (FORMAMIDE)>
1.97

>  <logK (HEPTAN-1-OL)>
2.81

>  <logK (HEPTANE)>
2.91

>  <logK (HEXADECANE)>
2.803

>  <logK (HEXANE)>
2.94

>  <logK (ISOBUTANOL)>
2.72

>  <logK (ISOPROPANOL)>
2.67

>  <logK (M-XYLENE)>
3.182

>  <logK (METHANOL)>
2.77

>  <logK (METHOXYETHANOL)>
3.019

>  <logK (METHYL ACETATE)>
3.208

>  <logK (METHYL TERT-BUTYL ETHER)>
3.16

>  <logK (METHYLCYCLOHEXANE)>
3.01

>  <logK (N,N-DIBUTYLFORMAMID)>
3.12

>  <logK (N,N-DIETHYLACETAMIDE)>
3.22

>  <logK (N,N-DIMETHYLACETAMIDE)>
3.27

>  <logK (N-BUTANOL)>
2.87

>  <logK (N-ETHYLACETAMIDE)>
2.93

>  <logK (N-ETHYLFORMAMIDE)>
2.89

>  <logK (N-METHYLACETAMIDE)>
2.84

>  <logK (N-METHYLFORMAMIDE)>
2.81

>  <logK (N-METHYLPYRROLIDONE)>
3.19

>  <logK (OCTANE)>
2.9

>  <logK (P-XYLENE)>
3.2

>  <logK (PENTANE)>
2.94

>  <logK (PENTANOL)>
2.83

>  <logK (PHENYLAMINE)>
2.988

>  <logK (PROPYLENE CARBONATE)>
2.84

>  <logK (PYRIDINE)>
3.306

>  <logK (SULFOLANE)>
2.936

>  <logK (TERT-BUTANOL)>
2.72

>  <logK (TETRADECANE)>
2.79

>  <logK (TETRAETHYLENE GLYCOL DIMETHYL ETHER)>
3.051

>  <logK (TETRAHYDROFURAN)>
3.48

>  <logK (TOLUENE)>
3.268

>  <logK (TRIBUTYL PHOSPHATE)>
3.04

>  <logK (UNDECANE)>
2.83

>  <mean polarizability>
10.08

>  <dipole moment>
1.26921955244e-12

$$$$
095
 OpenBabel08101817183D

 15 15  0  0  0  0  0  0  0  0999 V2000
    2.2293   -0.0436    0.0327 C   0  0  0  0  0  0  0  0  0  0  0  0
    0.7231   -0.0193    0.0097 C   0  0  0  0  0  0  0  0  0  0  0  0
   -0.0190   -1.1892   -0.1950 C   0  0  0  0  0  0  0  0  0  0  0  0
   -1.4157   -1.1632   -0.2156 C   0  0  0  0  0  0  0  0  0  0  0  0
   -2.0969    0.0400   -0.0309 C   0  0  0  0  0  0  0  0  0  0  0  0
   -1.3698    1.2154    0.1744 C   0  0  0  0  0  0  0  0  0  0  0  0
    0.0240    1.1835    0.1941 C   0  0  0  0  0  0  0  0  0  0  0  0
    2.6163   -1.0577   -0.1262 H   0  0  0  0  0  0  0  0  0  0  0  0
    2.6195    0.3193    0.9946 H   0  0  0  0  0  0  0  0  0  0  0  0
    2.6506    0.6044   -0.7495 H   0  0  0  0  0  0  0  0  0  0  0  0
    0.5059   -2.1353   -0.3404 H   0  0  0  0  0  0  0  0  0  0  0  0
   -1.9718   -2.0873   -0.3764 H   0  0  0  0  0  0  0  0  0  0  0  0
   -3.1865    0.0634   -0.0465 H   0  0  0  0  0  0  0  0  0  0  0  0
   -1.8917    2.1619    0.3195 H   0  0  0  0  0  0  0  0  0  0  0  0
    0.5829    2.1076    0.3552 H   0  0  0  0  0  0  0  0  0  0  0  0
  1  9  1  0  0  0  0
  2  1  1  0  0  0  0
  2  7  2  0  0  0  0
  3  2  1  0  0  0  0
  4  3  2  0  0  0  0
  4  5  1  0  0  0  0
  5  6  2  0  0  0  0
  6  7  1  0  0  0  0
  6 14  1  0  0  0  0
  7 15  1  0  0  0  0
  8  1  1  0  0  0  0
 10  1  1  0  0  0  0
 11  3  1  0  0  0  0
 12  4  1  0  0  0  0
 13  5  1  0  0  0  0
M  END
>  <Charge>
0.0

>  <InChI>
1/C7H8/c1-7-5-3-2-4-6-7/h2-6H,1H3

>  <Molecular Formula>
C_{7}H_{8}

>  <Name>
TOLUENE

>  <SMILES>
Cc1ccccc1

>  <logK ((\xb1)-1,2-PROPANEDIOL)>
2.648

>  <logK (1,4-DIOXANE)>
3.81

>  <logK (1,5-DIMETHYL-2-PYRROLIDINONE)>
3.699

>  <logK (1-CHLOROBUTANE)>
3.776

>  <logK (1-ETHYL-2-PYRROLIDINONE)>
3.704

>  <logK (1-HEXADECENE)>
3.35

>  <logK (1-METHYL-2-PIPERIDINONE)>
3.68

>  <logK (1-OCTANOL)>
3.31

>  <logK (1-PROPANOL)>
3.31

>  <logK (2,2,4-TRIMETHYLPENTANE)>
3.43

>  <logK (2-BUTOXYETHANOL)>
3.44

>  <logK (2-ETHOXYETHANOL)>
3.446

>  <logK (2-PICOLINE)>
3.798

>  <logK (2-PROPOXYETHANOL)>
3.44932955994

>  <logK (3-METHYLBUTAN-1-OL)>
3.3

>  <logK (4-FORMYLMORPHOLINE)>
3.31

>  <logK (5,8,11,14-TETRAOXAOCTADECANE)>
3.573

>  <logK (ACETIC ACID)>
3.357

>  <logK (ACETONE)>
3.65

>  <logK (ACETONITRILE)>
3.465

>  <logK (ACETOPHENONE)>
3.644

>  <logK (ANISOLE)>
3.767

>  <logK (BENZONITRILE)>
3.684

>  <logK (BENZYL ALCOHOL)>
3.362

>  <logK (BROMOBENZENE)>
3.79

>  <logK (BROMOETHANE)>
3.909

>  <logK (BUTANONE)>
3.74

>  <logK (BUTYL ACETATE)>
4.03

>  <logK (BUTYROLACTONE)>
3.524

>  <logK (BUTYRONITRILE)>
3.695

>  <logK (CARBON DISULFIDE)>
3.861

>  <logK (CARBON TETRACHLORIDE)>
3.88

>  <logK (CHLOROBENZENE)>
3.82

>  <logK (CHLOROFORM)>
4.06

>  <logK (CYCLOHEXANONE)>
3.794

>  <logK (DECANE)>
3.42

>  <logK (DIBENZYL ETHER)>
3.535

>  <logK (DIBUTYL ETHER)>
3.58

>  <logK (DICHLOROETHANE)>
3.89

>  <logK (DICHLOROMETHANE)>
4.021

>  <logK (DIETHYL ETHER)>
3.72

>  <logK (DIETHYLDIGLYCOL)>
3.647

>  <logK (DIETHYLENE GLYCOL DIBUTYL ETHER)>
3.593

>  <logK (DIIODOMETHANE)>
3.29

>  <logK (DIISOPROPYL ETHER)>
3.567

>  <logK (DIMETHYL SULFOXIDE)>
3.317

>  <logK (DIMETHYLFORMAMIDE)>
3.64

>  <logK (EPSILON-CAPROLACTONE)>
3.504

>  <logK (ETHANOL)>
3.28

>  <logK (ETHYL ACETATE)>
3.69

>  <logK (ETHYL PHENYL ETHER)>
3.703

>  <logK (ETHYLBENZENE)>
3.724

>  <logK (ETHYLBENZOATE)>
3.636

>  <logK (ETHYLENE GLYCOL)>
2.35

>  <logK (FLUOROBENZENE)>
3.83

>  <logK (FORMAMIDE)>
2.2

>  <logK (HEPTANE)>
3.47

>  <logK (HEXADECANE)>
3.344

>  <logK (HEXANE)>
3.48

>  <logK (HEXANOL)>
3.322

>  <logK (IODOBENZENE)>
3.7

>  <logK (ISOBUTANOL)>
3.2

>  <logK (ISOPROPANOL)>
3.21

>  <logK (M-CRESOL)>
3.422

>  <logK (METHANOL)>
3.19

>  <logK (METHOXYETHANOL)>
3.366

>  <logK (METHYLCYCLOHEXANE)>
3.55

>  <logK (N,N-DIBUTYLFORMAMID)>
3.6

>  <logK (N,N-DIETHYLACETAMIDE)>
3.64

>  <logK (N,N-DIMETHYLACETAMIDE)>
3.65

>  <logK (N-BUTANOL)>
3.31

>  <logK (N-ETHYLACETAMIDE)>
3.35

>  <logK (N-ETHYLFORMAMIDE)>
3.29

>  <logK (N-METHYLACETAMIDE)>
3.35

>  <logK (N-METHYLFORMAMIDE)>
3.18

>  <logK (N-METHYLPYRROLIDONE)>
3.72

>  <logK (NITROBENZENE)>
3.657

>  <logK (NITROETHANE)>
3.64

>  <logK (NITROMETHANE)>
3.372

>  <logK (P-XYLENE)>
3.735

>  <logK (PENTANE)>
3.46

>  <logK (PENTANOL)>
3.29

>  <logK (PERFLUOROBENZENE)>
3.912

>  <logK (PHENYLAMINE)>
3.4

>  <logK (PROPYLENE CARBONATE)>
3.2

>  <logK (PYRIDINE)>
3.755

>  <logK (SULFOLANE)>
3.273

>  <logK (TERT-BUTANOL)>
3.23

>  <logK (TETRAETHYLENE GLYCOL DIMETHYL ETHER)>
3.484

>  <logK (TETRAHYDROFURAN)>
3.99

>  <logK (TOLUENE)>
3.786

>  <logK (TRIBUTYL PHOSPHATE)>
3.53

>  <logK (TRIETHYLAMINE)>
3.586

>  <logK (UNDECANE)>
3.39

>  <mean polarizability>
12.23

>  <dipole moment>
0.422223764713

>  <experimental polarizability source>
@Article{Bosque2002, Title = {Polarizabilities of Solvents from the Chemical Composition}, Author = {Bosque, Ramon and Sales, Joaquim}, Journal = {Journal of Chemical Information and Computer Sciences}, Year = {2002}, Note = {PMID: 12377003}, Number = {5}, Pages = {1154-1163}, Volume = {42}, Doi = {10.1021/ci025528x}, Url = {https://doi.org/10.1021/ci025528x}}

>  <Formula>
C7H8

$$$$
096
 OpenBabel08101817183D

 18 18  0  0  0  0  0  0  0  0999 V2000
   -2.4551   -0.2980    0.6622 C   0  0  0  0  0  0  0  0  0  0  0  0
   -1.6533    0.4388   -0.4218 C   0  0  0  0  0  0  0  0  0  0  0  0
   -0.1639    0.2275   -0.2918 C   0  0  0  0  0  0  0  0  0  0  0  0
    0.6162    1.0762    0.5061 C   0  0  0  0  0  0  0  0  0  0  0  0
    1.9866    0.8610    0.6600 C   0  0  0  0  0  0  0  0  0  0  0  0
    2.6043   -0.2121    0.0146 C   0  0  0  0  0  0  0  0  0  0  0  0
    1.8410   -1.0639   -0.7858 C   0  0  0  0  0  0  0  0  0  0  0  0
    0.4707   -0.8439   -0.9353 C   0  0  0  0  0  0  0  0  0  0  0  0
   -2.1656    0.0427    1.6655 H   0  0  0  0  0  0  0  0  0  0  0  0
   -3.5333   -0.1254    0.5413 H   0  0  0  0  0  0  0  0  0  0  0  0
   -2.2760   -1.3807    0.6154 H   0  0  0  0  0  0  0  0  0  0  0  0
   -1.9852    0.0975   -1.4138 H   0  0  0  0  0  0  0  0  0  0  0  0
   -1.8754    1.5153   -0.3695 H   0  0  0  0  0  0  0  0  0  0  0  0
    0.1422    1.9218    1.0091 H   0  0  0  0  0  0  0  0  0  0  0  0
    2.5749    1.5351    1.2835 H   0  0  0  0  0  0  0  0  0  0  0  0
    3.6751   -0.3803    0.1300 H   0  0  0  0  0  0  0  0  0  0  0  0
    2.3143   -1.9004   -1.3010 H   0  0  0  0  0  0  0  0  0  0  0  0
   -0.1177   -1.5112   -1.5686 H   0  0  0  0  0  0  0  0  0  0  0  0
  1  9  1  0  0  0  0
  2 13  1  0  0  0  0
  2  3  1  0  0  0  0
  2  1  1  0  0  0  0
  3  4  2  0  0  0  0
  4  5  1  0  0  0  0
  4 14  1  0  0  0  0
  5 15  1  0  0  0  0
  6 16  1  0  0  0  0
  6  5  2  0  0  0  0
  7  6  1  0  0  0  0
  8  7  2  0  0  0  0
  8  3  1  0  0  0  0
 10  1  1  0  0  0  0
 11  1  1  0  0  0  0
 12  2  1  0  0  0  0
 17  7  1  0  0  0  0
 18  8  1  0  0  0  0
M  END
>  <Charge>
0.0

>  <InChI>
1/C8H10/c1-2-8-6-4-3-5-7-8/h3-7H,2H2,1H3

>  <Molecular Formula>
C_{8}H_{10}

>  <Name>
ETHYLBENZENE

>  <SMILES>
CCc1ccccc1

>  <logK ((\xb1)-1,2-PROPANEDIOL)>
2.948

>  <logK (1,4-DIOXANE)>
4.18

>  <logK (1-HEXADECENE)>
3.724

>  <logK (1-OCTANOL)>
3.72

>  <logK (1-PROPANOL)>
3.614

>  <logK (2,2,4-TRIMETHYLPENTANE)>
3.882

>  <logK (2-BUTOXYETHANOL)>
3.83

>  <logK (2-ETHOXYETHANOL)>
3.801

>  <logK (2-ISOPROPOXYETHANOL)>
3.79684746448

>  <logK (2-PROPOXYETHANOL)>
3.81976611381

>  <logK (4-FORMYLMORPHOLINE)>
3.67

>  <logK (BUTANONE)>
4.14

>  <logK (CHLOROBENZENE)>
4.28

>  <logK (CHLOROFORM)>
4.28

>  <logK (DECANE)>
3.835

>  <logK (DIIODOMETHANE)>
3.67

>  <logK (ETHANOL)>
3.611

>  <logK (ETHYLBENZENE)>
4.197

>  <logK (ETHYLBENZOATE)>
4.072

>  <logK (ETHYLENE GLYCOL)>
2.49

>  <logK (FORMAMIDE)>
2.39

>  <logK (HEPTANE)>
3.89

>  <logK (HEXADECANE)>
3.765

>  <logK (HEXANE)>
3.922

>  <logK (HEXANOL)>
3.7

>  <logK (ISOBUTANOL)>
3.63

>  <logK (ISOPROPANOL)>
3.53

>  <logK (METHANOL)>
3.58

>  <logK (METHOXYETHANOL)>
3.704

>  <logK (METHYLCYCLOHEXANE)>
4.02

>  <logK (N,N-DIBUTYLFORMAMID)>
3.99

>  <logK (N,N-DIMETHYLACETAMIDE)>
4.0

>  <logK (N-BUTANOL)>
3.648

>  <logK (N-METHYLACETAMIDE)>
3.7

>  <logK (N-METHYLFORMAMIDE)>
3.53

>  <logK (PENTANOL)>
3.676

>  <logK (PROPYLENE CARBONATE)>
3.53

>  <logK (PYRIDINE)>
4.222

>  <logK (SULFOLANE)>
3.57

>  <logK (TERT-BUTANOL)>
3.66

>  <logK (TETRAHYDROFURAN)>
4.43

>  <logK (TOLUENE)>
4.233

>  <logK (TRIBUTYL PHOSPHATE)>
3.96

>  <logK (UNDECANE)>
3.85

>  <experimental polarizability source>
@Article{Bosque2002, Title = {Polarizabilities of Solvents from the Chemical Composition}, Author = {Bosque, Ramon and Sales, Joaquim}, Journal = {Journal of Chemical Information and Computer Sciences}, Year = {2002}, Note = {PMID: 12377003}, Number = {5}, Pages = {1154-1163}, Volume = {42}, Doi = {10.1021/ci025528x}, Url = {https://doi.org/10.1021/ci025528x}}

>  <Formula>
C8H10

>  <mean polarizability>
14.22

>  <dipole moment>
0.41946678328

$$$$
097
 OpenBabel08101817183D

 21 21  0  0  0  0  0  0  0  0999 V2000
   -1.9728    0.7494   -1.5294 C   0  0  0  0  0  0  0  0  0  0  0  0
   -2.2094    0.1390   -0.1492 C   0  0  0  0  0  0  0  0  0  0  0  0
   -1.2202   -0.9881    0.2108 C   0  0  0  0  0  0  0  0  0  0  0  0
    0.2092   -0.5259    0.3693 C   0  0  0  0  0  0  0  0  0  0  0  0
    0.5998    0.2051    1.5022 C   0  0  0  0  0  0  0  0  0  0  0  0
    1.9126    0.6501    1.6550 C   0  0  0  0  0  0  0  0  0  0  0  0
    2.8668    0.3720    0.6729 C   0  0  0  0  0  0  0  0  0  0  0  0
    2.4946   -0.3544   -0.4585 C   0  0  0  0  0  0  0  0  0  0  0  0
    1.1780   -0.7978   -0.6057 C   0  0  0  0  0  0  0  0  0  0  0  0
   -2.7046    1.5397   -1.7447 H   0  0  0  0  0  0  0  0  0  0  0  0
   -2.0627   -0.0112   -2.3190 H   0  0  0  0  0  0  0  0  0  0  0  0
   -0.9701    1.1914   -1.6069 H   0  0  0  0  0  0  0  0  0  0  0  0
   -3.2312   -0.2675   -0.0950 H   0  0  0  0  0  0  0  0  0  0  0  0
   -2.1504    0.9255    0.6196 H   0  0  0  0  0  0  0  0  0  0  0  0
   -1.2672   -1.7679   -0.5656 H   0  0  0  0  0  0  0  0  0  0  0  0
   -1.5519   -1.4595    1.1492 H   0  0  0  0  0  0  0  0  0  0  0  0
   -0.1364    0.4215    2.2792 H   0  0  0  0  0  0  0  0  0  0  0  0
    2.1945    1.2106    2.5469 H   0  0  0  0  0  0  0  0  0  0  0  0
    3.8943    0.7158    0.7916 H   0  0  0  0  0  0  0  0  0  0  0  0
    3.2308   -0.5785   -1.2310 H   0  0  0  0  0  0  0  0  0  0  0  0
    0.8958   -1.3695   -1.4917 H   0  0  0  0  0  0  0  0  0  0  0  0
  1  2  1  0  0  0  0
  2 13  1  0  0  0  0
  2  3  1  0  0  0  0
  2 14  1  0  0  0  0
  3  4  1  0  0  0  0
  3 16  1  0  0  0  0
  4  5  2  0  0  0  0
  5  6  1  0  0  0  0
  5 17  1  0  0  0  0
  6 18  1  0  0  0  0
  7 19  1  0  0  0  0
  7  6  2  0  0  0  0
  8  7  1  0  0  0  0
  9  8  2  0  0  0  0
  9  4  1  0  0  0  0
 10  1  1  0  0  0  0
 11  1  1  0  0  0  0
 12  1  1  0  0  0  0
 15  3  1  0  0  0  0
 20  8  1  0  0  0  0
 21  9  1  0  0  0  0
M  END
>  <Charge>
0.0

>  <InChI>
1/C9H12/c1-2-6-9-7-4-3-5-8-9/h3-5,7-8H,2,6H2,1H3

>  <Molecular Formula>
C_{9}H_{12}

>  <Name>
N-PROPYLBENZENE

>  <SMILES>
CCCc1ccccc1

>  <logK (1-OCTANOL)>
4.09

>  <logK (2,2,4-TRIMETHYLPENTANE)>
4.316

>  <logK (DECANE)>
3.837

>  <logK (ETHYLENE GLYCOL)>
2.68

>  <logK (FORMAMIDE)>
2.56

>  <logK (HEPTANE)>
4.34

>  <logK (HEXADECANE)>
4.221

>  <logK (HEXANE)>
4.071

>  <logK (ISOPROPANOL)>
3.93

>  <logK (METHANOL)>
3.91

>  <logK (TETRAHYDROFURAN)>
4.87

>  <logK (TRIBUTYL PHOSPHATE)>
4.39

>  <mean polarizability>
16.02

>  <dipole moment>
0.431077779748

$$$$
098
 OpenBabel08101817183D

 21 21  0  0  0  0  0  0  0  0999 V2000
   -1.9231    1.1945   -0.6859 C   0  0  0  0  0  0  0  0  0  0  0  0
   -1.2700   -0.1914   -0.5635 C   0  0  0  0  0  0  0  0  0  0  0  0
   -2.0619   -1.0874    0.4019 C   0  0  0  0  0  0  0  0  0  0  0  0
    0.1955   -0.0947   -0.1739 C   0  0  0  0  0  0  0  0  0  0  0  0
    0.5925    0.4651    1.0502 C   0  0  0  0  0  0  0  0  0  0  0  0
    1.9405    0.5493    1.3988 C   0  0  0  0  0  0  0  0  0  0  0  0
    2.9240    0.0739    0.5280 C   0  0  0  0  0  0  0  0  0  0  0  0
    2.5454   -0.4854   -0.6925 C   0  0  0  0  0  0  0  0  0  0  0  0
    1.1940   -0.5667   -1.0358 C   0  0  0  0  0  0  0  0  0  0  0  0
   -2.9633    1.1027   -1.0294 H   0  0  0  0  0  0  0  0  0  0  0  0
   -1.9369    1.7131    0.2834 H   0  0  0  0  0  0  0  0  0  0  0  0
   -1.3810    1.8303   -1.3982 H   0  0  0  0  0  0  0  0  0  0  0  0
   -1.3023   -0.6640   -1.5589 H   0  0  0  0  0  0  0  0  0  0  0  0
   -3.1029   -1.1934    0.0652 H   0  0  0  0  0  0  0  0  0  0  0  0
   -2.0813   -0.6591    1.4143 H   0  0  0  0  0  0  0  0  0  0  0  0
   -1.6193   -2.0899    0.4709 H   0  0  0  0  0  0  0  0  0  0  0  0
   -0.1611    0.8418    1.7439 H   0  0  0  0  0  0  0  0  0  0  0  0
    2.2255    0.9883    2.3555 H   0  0  0  0  0  0  0  0  0  0  0  0
    3.9774    0.1396    0.8003 H   0  0  0  0  0  0  0  0  0  0  0  0
    3.3029   -0.8608   -1.3813 H   0  0  0  0  0  0  0  0  0  0  0  0
    0.9051   -1.0058   -1.9929 H   0  0  0  0  0  0  0  0  0  0  0  0
  1  2  1  0  0  0  0
  1 11  1  0  0  0  0
  2  4  1  0  0  0  0
  2  3  1  0  0  0  0
  3 16  1  0  0  0  0
  3 15  1  0  0  0  0
  4  5  2  0  0  0  0
  5  6  1  0  0  0  0
  5 17  1  0  0  0  0
  6 18  1  0  0  0  0
  7 19  1  0  0  0  0
  7  6  2  0  0  0  0
  8  7  1  0  0  0  0
  9  8  2  0  0  0  0
  9  4  1  0  0  0  0
 10  1  1  0  0  0  0
 12  1  1  0  0  0  0
 13  2  1  0  0  0  0
 14  3  1  0  0  0  0
 20  8  1  0  0  0  0
 21  9  1  0  0  0  0
M  END
>  <Charge>
0.0

>  <InChI>
1/C9H12/c1-8(2)9-6-4-3-5-7-9/h3-8H,1-2H3

>  <Molecular Formula>
C_{9}H_{12}

>  <Name>
CUMENE

>  <SMILES>
CC(C)c1ccccc1

>  <logK (1-OCTANOL)>
3.98

>  <logK (4-FORMYLMORPHOLINE)>
3.87

>  <logK (ACETONE)>
4.32

>  <logK (ETHYLENE GLYCOL)>
2.59

>  <logK (FORMAMIDE)>
2.48

>  <logK (HEPTANE)>
4.19

>  <logK (HEXADECANE)>
4.105

>  <logK (ISOPROPANOL)>
3.79

>  <logK (METHANOL)>
3.8

>  <logK (TETRAHYDROFURAN)>
4.77

>  <logK (TRIBUTYL PHOSPHATE)>
4.25

>  <mean polarizability>
16.1

>  <dipole moment>
0.404739796794

$$$$
099
 OpenBabel08101817183D

 24 24  0  0  0  0  0  0  0  0999 V2000
    2.8290    0.9043   -0.5822 C   0  0  0  0  0  0  0  0  0  0  0  0
    1.9971    0.6274    0.6716 C   0  0  0  0  0  0  0  0  0  0  0  0
    1.5552   -0.8333    0.8241 C   0  0  0  0  0  0  0  0  0  0  0  0
    0.5422   -1.3273   -0.2307 C   0  0  0  0  0  0  0  0  0  0  0  0
   -0.7941   -0.6260   -0.1676 C   0  0  0  0  0  0  0  0  0  0  0  0
   -1.7015   -0.9120    0.8641 C   0  0  0  0  0  0  0  0  0  0  0  0
   -2.9304   -0.2573    0.9451 C   0  0  0  0  0  0  0  0  0  0  0  0
   -3.2788    0.7015   -0.0093 C   0  0  0  0  0  0  0  0  0  0  0  0
   -2.3892    0.9950   -1.0433 C   0  0  0  0  0  0  0  0  0  0  0  0
   -1.1600    0.3358   -1.1187 C   0  0  0  0  0  0  0  0  0  0  0  0
    3.1566    1.9520   -0.6174 H   0  0  0  0  0  0  0  0  0  0  0  0
    3.7296    0.2729   -0.6079 H   0  0  0  0  0  0  0  0  0  0  0  0
    2.2640    0.7096   -1.5043 H   0  0  0  0  0  0  0  0  0  0  0  0
    2.5857    0.9048    1.5597 H   0  0  0  0  0  0  0  0  0  0  0  0
    1.1103    1.2803    0.6803 H   0  0  0  0  0  0  0  0  0  0  0  0
    1.1133   -0.9725    1.8232 H   0  0  0  0  0  0  0  0  0  0  0  0
    2.4433   -1.4857    0.7860 H   0  0  0  0  0  0  0  0  0  0  0  0
    0.3900   -2.4074   -0.0809 H   0  0  0  0  0  0  0  0  0  0  0  0
    0.9675   -1.2138   -1.2388 H   0  0  0  0  0  0  0  0  0  0  0  0
   -1.4424   -1.6658    1.6107 H   0  0  0  0  0  0  0  0  0  0  0  0
   -3.6220   -0.5000    1.7526 H   0  0  0  0  0  0  0  0  0  0  0  0
   -4.2399    1.2124    0.0496 H   0  0  0  0  0  0  0  0  0  0  0  0
   -2.6531    1.7373   -1.7973 H   0  0  0  0  0  0  0  0  0  0  0  0
   -0.4722    0.5677   -1.9343 H   0  0  0  0  0  0  0  0  0  0  0  0
  1  2  1  0  0  0  0
  2 15  1  0  0  0  0
  2  3  1  0  0  0  0
  2 14  1  0  0  0  0
  3 16  1  0  0  0  0
  4  5  1  0  0  0  0
  4 18  1  0  0  0  0
  4  3  1  0  0  0  0
  5  6  2  0  0  0  0
  6  7  1  0  0  0  0
  6 20  1  0  0  0  0
  7 21  1  0  0  0  0
  8 22  1  0  0  0  0
  8  7  2  0  0  0  0
  9  8  1  0  0  0  0
 10  9  2  0  0  0  0
 10  5  1  0  0  0  0
 11  1  1  0  0  0  0
 12  1  1  0  0  0  0
 13  1  1  0  0  0  0
 17  3  1  0  0  0  0
 19  4  1  0  0  0  0
 23  9  1  0  0  0  0
 24 10  1  0  0  0  0
M  END
>  <Charge>
0.0

>  <InChI>
1/C10H14/c1-2-3-7-10-8-5-4-6-9-10/h4-6,8-9H,2-3,7H2,1H3

>  <Molecular Formula>
C_{10}H_{14}

>  <Name>
BUTYLBENZENE

>  <SMILES>
CCCCc1ccccc1

>  <logK (DIIODOMETHANE)>
4.31

>  <logK (ETHANOL)>
4.2

>  <logK (HEXADECANE)>
4.686

>  <logK (ISOPROPANOL)>
4.35

>  <logK (METHANOL)>
4.28

>  <mean polarizability>
17.86

>  <dipole moment>
0.404679403698

$$$$
100
 OpenBabel08101817183D

 24 24  0  0  0  0  0  0  0  0999 V2000
   -1.3582    0.5726    1.6241 C   0  0  0  0  0  0  0  0  0  0  0  0
   -1.1216    0.1193    0.1669 C   0  0  0  0  0  0  0  0  0  0  0  0
   -1.7826    1.1440   -0.7680 C   0  0  0  0  0  0  0  0  0  0  0  0
   -1.8024   -1.2483   -0.0578 C   0  0  0  0  0  0  0  0  0  0  0  0
    0.3875   -0.0149   -0.0862 C   0  0  0  0  0  0  0  0  0  0  0  0
    1.0616    0.7265   -1.0665 C   0  0  0  0  0  0  0  0  0  0  0  0
    2.4370    0.5805   -1.2717 C   0  0  0  0  0  0  0  0  0  0  0  0
    3.1744   -0.3136   -0.4987 C   0  0  0  0  0  0  0  0  0  0  0  0
    2.5208   -1.0614    0.4833 C   0  0  0  0  0  0  0  0  0  0  0  0
    1.1497   -0.9116    0.6831 C   0  0  0  0  0  0  0  0  0  0  0  0
   -0.8914    1.5493    1.8117 H   0  0  0  0  0  0  0  0  0  0  0  0
   -0.9421   -0.1426    2.3455 H   0  0  0  0  0  0  0  0  0  0  0  0
   -2.4358    0.6635    1.8238 H   0  0  0  0  0  0  0  0  0  0  0  0
   -2.8574    1.2027   -0.5480 H   0  0  0  0  0  0  0  0  0  0  0  0
   -1.6753    0.8623   -1.8247 H   0  0  0  0  0  0  0  0  0  0  0  0
   -1.3616    2.1502   -0.6352 H   0  0  0  0  0  0  0  0  0  0  0  0
   -1.3999   -2.0185    0.6129 H   0  0  0  0  0  0  0  0  0  0  0  0
   -1.6579   -1.5933   -1.0908 H   0  0  0  0  0  0  0  0  0  0  0  0
   -2.8832   -1.1705    0.1297 H   0  0  0  0  0  0  0  0  0  0  0  0
    0.5146    1.4337   -1.6875 H   0  0  0  0  0  0  0  0  0  0  0  0
    2.9299    1.1730   -2.0433 H   0  0  0  0  0  0  0  0  0  0  0  0
    4.2466   -0.4285   -0.6574 H   0  0  0  0  0  0  0  0  0  0  0  0
    3.0820   -1.7661    1.0979 H   0  0  0  0  0  0  0  0  0  0  0  0
    0.6651   -1.5083    1.4569 H   0  0  0  0  0  0  0  0  0  0  0  0
  1 11  1  0  0  0  0
  1 13  1  0  0  0  0
  1 12  1  0  0  0  0
  2  1  1  0  0  0  0
  3 16  1  0  0  0  0
  3 14  1  0  0  0  0
  3  2  1  0  0  0  0
  4 19  1  0  0  0  0
  4  2  1  0  0  0  0
  4 17  1  0  0  0  0
  5  2  1  0  0  0  0
  5 10  2  0  0  0  0
  6  5  1  0  0  0  0
  7  6  2  0  0  0  0
  7  8  1  0  0  0  0
  8  9  2  0  0  0  0
  9 10  1  0  0  0  0
  9 23  1  0  0  0  0
 10 24  1  0  0  0  0
 15  3  1  0  0  0  0
 18  4  1  0  0  0  0
 20  6  1  0  0  0  0
 21  7  1  0  0  0  0
 22  8  1  0  0  0  0
M  END
>  <Charge>
0.0

>  <InChI>
1/C10H14/c1-10(2,3)9-7-5-4-6-8-9/h4-8H,1-3H3

>  <Molecular Formula>
C_{10}H_{14}

>  <Name>
T-BUTYLBENZENE

>  <SMILES>
CC(C)(C)c1ccccc1

>  <logK (ISOPROPANOL)>
4.1

>  <logK (METHANOL)>
4.05

>  <logK (TETRAHYDROFURAN)>
5.09

>  <dipole moment>
0.429627205458

>  <mean polarizability>
17.93

$$$$
101
 OpenBabel08101817183D

 30 30  0  0  0  0  0  0  0  0999 V2000
   -4.5764    0.7402    0.5721 C   0  0  0  0  0  0  0  0  0  0  0  0
   -3.1752    0.9337   -0.0069 C   0  0  0  0  0  0  0  0  0  0  0  0
   -2.3559   -0.3580   -0.0523 C   0  0  0  0  0  0  0  0  0  0  0  0
   -0.9489   -0.1718   -0.6234 C   0  0  0  0  0  0  0  0  0  0  0  0
   -0.1398   -1.4683   -0.6747 C   0  0  0  0  0  0  0  0  0  0  0  0
    1.2827   -1.3046   -1.2459 C   0  0  0  0  0  0  0  0  0  0  0  0
    2.1981   -0.4642   -0.3866 C   0  0  0  0  0  0  0  0  0  0  0  0
    2.7319   -0.9834    0.8029 C   0  0  0  0  0  0  0  0  0  0  0  0
    3.5673   -0.2151    1.6134 C   0  0  0  0  0  0  0  0  0  0  0  0
    3.8877    1.0949    1.2485 C   0  0  0  0  0  0  0  0  0  0  0  0
    3.3663    1.6251    0.0680 C   0  0  0  0  0  0  0  0  0  0  0  0
    2.5303    0.8505   -0.7397 C   0  0  0  0  0  0  0  0  0  0  0  0
   -5.1400    1.6828    0.5927 H   0  0  0  0  0  0  0  0  0  0  0  0
   -5.1559    0.0186   -0.0220 H   0  0  0  0  0  0  0  0  0  0  0  0
   -4.5309    0.3571    1.6020 H   0  0  0  0  0  0  0  0  0  0  0  0
   -2.6304    1.6856    0.5871 H   0  0  0  0  0  0  0  0  0  0  0  0
   -3.2505    1.3497   -1.0251 H   0  0  0  0  0  0  0  0  0  0  0  0
   -2.2828   -0.7767    0.9662 H   0  0  0  0  0  0  0  0  0  0  0  0
   -2.8987   -1.1111   -0.6496 H   0  0  0  0  0  0  0  0  0  0  0  0
   -1.0217    0.2506   -1.6407 H   0  0  0  0  0  0  0  0  0  0  0  0
   -0.4080    0.5766   -0.0218 H   0  0  0  0  0  0  0  0  0  0  0  0
   -0.0726   -1.8977    0.3386 H   0  0  0  0  0  0  0  0  0  0  0  0
   -0.6789   -2.2097   -1.2867 H   0  0  0  0  0  0  0  0  0  0  0  0
    1.7265   -2.3044   -1.3715 H   0  0  0  0  0  0  0  0  0  0  0  0
    1.2185   -0.8622   -2.2523 H   0  0  0  0  0  0  0  0  0  0  0  0
    2.4939   -2.0092    1.0926 H   0  0  0  0  0  0  0  0  0  0  0  0
    3.9753   -0.6411    2.5306 H   0  0  0  0  0  0  0  0  0  0  0  0
    4.5436    1.6962    1.8781 H   0  0  0  0  0  0  0  0  0  0  0  0
    3.6128    2.6451   -0.2290 H   0  0  0  0  0  0  0  0  0  0  0  0
    2.1313    1.2710   -1.6648 H   0  0  0  0  0  0  0  0  0  0  0  0
  1 13  1  0  0  0  0
  1 15  1  0  0  0  0
  2  1  1  0  0  0  0
  2 16  1  0  0  0  0
  3  2  1  0  0  0  0
  3 18  1  0  0  0  0
  4  3  1  0  0  0  0
  4 21  1  0  0  0  0
  5  4  1  0  0  0  0
  5 22  1  0  0  0  0
  6  5  1  0  0  0  0
  6  7  1  0  0  0  0
  7  8  1  0  0  0  0
  8 26  1  0  0  0  0
  8  9  2  0  0  0  0
  9 27  1  0  0  0  0
 10  9  1  0  0  0  0
 10 28  1  0  0  0  0
 11 10  2  0  0  0  0
 12  7  2  0  0  0  0
 12 11  1  0  0  0  0
 14  1  1  0  0  0  0
 17  2  1  0  0  0  0
 19  3  1  0  0  0  0
 20  4  1  0  0  0  0
 23  5  1  0  0  0  0
 24  6  1  0  0  0  0
 25  6  1  0  0  0  0
 29 11  1  0  0  0  0
 30 12  1  0  0  0  0
M  END
>  <Charge>
0.0

>  <InChI>
1/C12H18/c1-2-3-4-6-9-12-10-7-5-8-11-12/h5,7-8,10-11H,2-4,6,9H2,1H3

>  <Molecular Formula>
C_{12}H_{18}

>  <Name>
HEXYLBENZENE

>  <SMILES>
CCCCCCc1ccccc1

>  <logK (HEXADECANE)>
5.617

>  <logK (METHANOL)>
5.23

>  <dipole moment>
0.356296922268

>  <mean polarizability>
21.84

$$$$
102
 OpenBabel08101817183D

 12 12  0  0  0  0  0  0  0  0999 V2000
   -1.4271    0.2761   -0.0219 C   0  0  0  0  0  0  0  0  0  0  0  0
   -0.5093    1.3281   -0.0193 C   0  0  0  0  0  0  0  0  0  0  0  0
    0.8626    1.0714    0.0017 C   0  0  0  0  0  0  0  0  0  0  0  0
    1.3036   -0.2522    0.0199 C   0  0  0  0  0  0  0  0  0  0  0  0
    0.4005   -1.3158    0.0178 C   0  0  0  0  0  0  0  0  0  0  0  0
   -0.9682   -1.0423   -0.0033 C   0  0  0  0  0  0  0  0  0  0  0  0
    3.0161   -0.5836    0.0461 Cl  0  0  0  0  0  0  0  0  0  0  0  0
   -2.4967    0.4831   -0.0383 H   0  0  0  0  0  0  0  0  0  0  0  0
   -0.8583    2.3607   -0.0337 H   0  0  0  0  0  0  0  0  0  0  0  0
    1.5860    1.8849    0.0039 H   0  0  0  0  0  0  0  0  0  0  0  0
    0.7681   -2.3403    0.0323 H   0  0  0  0  0  0  0  0  0  0  0  0
   -1.6773   -1.8701   -0.0052 H   0  0  0  0  0  0  0  0  0  0  0  0
  1  2  2  0  0  0  0
  1  6  1  0  0  0  0
  2  3  1  0  0  0  0
  3 10  1  0  0  0  0
  3  4  2  0  0  0  0
  4  7  1  0  0  0  0
  5  4  1  0  0  0  0
  5 11  1  0  0  0  0
  6  5  2  0  0  0  0
  8  1  1  0  0  0  0
  9  2  1  0  0  0  0
 12  6  1  0  0  0  0
M  END
>  <Charge>
0.0

>  <InChI>
1/C6H5Cl/c7-6-4-2-1-3-5-6/h1-5H

>  <Molecular Formula>
C_{6}H_{5}Cl

>  <Name>
CHLOROBENZENE

>  <SMILES>
c1ccc(cc1)Cl

>  <logK ((\xb1)-1,2-PROPANEDIOL)>
3.196

>  <logK ((\xb1)-2-BUTANOL)>
3.73

>  <logK (1,4-DIOXANE)>
4.24

>  <logK (1-CHLOROBUTANE)>
4.098

>  <logK (2,2,4-TRIMETHYLPENTANE)>
3.607

>  <logK (2-BUTOXYETHANOL)>
3.91

>  <logK (2-ETHOXYETHANOL)>
3.976

>  <logK (2-ISOPROPOXYETHANOL)>
3.9185316762

>  <logK (2-PROPOXYETHANOL)>
3.92424463533

>  <logK (3-METHYLBUTAN-1-OL)>
3.756

>  <logK (5,8,11,14-TETRAOXAOCTADECANE)>
4.044

>  <logK (ACETONE)>
4.14

>  <logK (BENZONITRILE)>
4.124

>  <logK (CARBON TETRACHLORIDE)>
4.16

>  <logK (CHLOROBENZENE)>
4.18

>  <logK (CHLOROFORM)>
4.22

>  <logK (DECANE)>
3.613

>  <logK (DICHLOROMETHANE)>
4.325

>  <logK (DIETHYLENE GLYCOL DIBUTYL ETHER)>
4.026

>  <logK (DIMETHYLFORMAMIDE)>
4.15

>  <logK (ETHANOL)>
3.68

>  <logK (ETHYL ACETATE)>
4.15

>  <logK (ETHYLBENZENE)>
4.092

>  <logK (ETHYLENE GLYCOL)>
2.84

>  <logK (FORMAMIDE)>
2.62

>  <logK (HEPTANE)>
3.79

>  <logK (HEXADECANE)>
3.64

>  <logK (HEXANE)>
3.82

>  <logK (ISOBUTANOL)>
3.73

>  <logK (ISOPROPANOL)>
3.61

>  <logK (METHANOL)>
3.67

>  <logK (METHOXYETHANOL)>
3.834

>  <logK (N,N-DIMETHYLACETAMIDE)>
3.67

>  <logK (N-METHYLACETAMIDE)>
3.79

>  <logK (O-XYLENE)>
4.098

>  <logK (P-XYLENE)>
4.05

>  <logK (PENTANOL)>
3.82

>  <logK (PHENYLAMINE)>
3.782

>  <logK (PYRIDINE)>
4.269

>  <logK (SULFOLANE)>
3.768

>  <logK (TERT-BUTANOL)>
3.69

>  <logK (TETRAETHYLENE GLYCOL DIMETHYL ETHER)>
3.998

>  <logK (TETRAHYDROFURAN)>
4.43

>  <logK (UNDECANE)>
3.62

>  <mean polarizability>
12.46

>  <dipole moment>
1.63484802963

>  <Formula>
C6H5Cl

$$$$
103
 OpenBabel08101817183D

  2  1  0  0  0  0  0  0  0  0999 V2000
    0.5786   -0.0000    0.0000 N   0  0  0  0  0  0  0  0  0  0  0  0
   -0.5786    0.0000    0.0000 O   0  0  0  0  0  0  0  0  0  0  0  0
  1  2  2  0  0  0  0
M  RAD  1   1   2
M  END
>  <Charge>
0.0

>  <InChI>
1/NO/c1-2

>  <Molecular Formula>
NO

>  <Name>
NITRIC OXIDE

>  <SMILES>
[N]=O

>  <logK (CARBON TETRACHLORIDE)>
-0.445

>  <logK (ETHANOL)>
-0.594

>  <logK (HEXANE)>
-0.329

>  <logK (M-XYLENE)>
-0.58

>  <logK (METHANOL)>
-0.457

>  <logK (TOLUENE)>
-0.595

>  <logK (TRIBUTYL PHOSPHATE)>
-0.584

>  <mean polarizability>
1.6

>  <dipole moment>
0.230563595235

$$$$
104
 OpenBabel08101817183D

 32 31  0  0  0  0  0  0  0  0999 V2000
   -4.5185   -1.1321    0.4467 C   0  0  0  0  0  0  0  0  0  0  0  0
   -3.2573   -1.1856   -0.4155 C   0  0  0  0  0  0  0  0  0  0  0  0
   -2.4083    0.0851   -0.3252 C   0  0  0  0  0  0  0  0  0  0  0  0
   -1.1352    0.0259   -1.1730 C   0  0  0  0  0  0  0  0  0  0  0  0
   -0.3087    1.3200   -1.1904 C   0  0  0  0  0  0  0  0  0  0  0  0
    0.2211    1.7957    0.1721 C   0  0  0  0  0  0  0  0  0  0  0  0
    1.1124    0.8002    0.9286 C   0  0  0  0  0  0  0  0  0  0  0  0
    2.3945    0.3965    0.1963 C   0  0  0  0  0  0  0  0  0  0  0  0
    3.3053   -0.5139    1.0242 C   0  0  0  0  0  0  0  0  0  0  0  0
    4.5763   -0.9314    0.2845 C   0  0  0  0  0  0  0  0  0  0  0  0
   -5.1124   -2.0517    0.3538 H   0  0  0  0  0  0  0  0  0  0  0  0
   -4.2674   -1.0039    1.5098 H   0  0  0  0  0  0  0  0  0  0  0  0
   -5.1624   -0.2890    0.1567 H   0  0  0  0  0  0  0  0  0  0  0  0
   -3.5360   -1.3602   -1.4679 H   0  0  0  0  0  0  0  0  0  0  0  0
   -2.6440   -2.0524   -0.1180 H   0  0  0  0  0  0  0  0  0  0  0  0
   -2.1496    0.2657    0.7314 H   0  0  0  0  0  0  0  0  0  0  0  0
   -3.0171    0.9508   -0.6400 H   0  0  0  0  0  0  0  0  0  0  0  0
   -1.4121   -0.2211   -2.2114 H   0  0  0  0  0  0  0  0  0  0  0  0
   -0.5096   -0.8137   -0.8261 H   0  0  0  0  0  0  0  0  0  0  0  0
    0.5362    1.1877   -1.8845 H   0  0  0  0  0  0  0  0  0  0  0  0
   -0.9233    2.1276   -1.6216 H   0  0  0  0  0  0  0  0  0  0  0  0
   -0.6278    2.0685    0.8188 H   0  0  0  0  0  0  0  0  0  0  0  0
    0.7861    2.7293    0.0146 H   0  0  0  0  0  0  0  0  0  0  0  0
    0.5360   -0.1077    1.1736 H   0  0  0  0  0  0  0  0  0  0  0  0
    1.3846    1.2482    1.8988 H   0  0  0  0  0  0  0  0  0  0  0  0
    2.1443   -0.1146   -0.7482 H   0  0  0  0  0  0  0  0  0  0  0  0
    2.9534    1.3047   -0.0899 H   0  0  0  0  0  0  0  0  0  0  0  0
    2.7416   -1.4128    1.3246 H   0  0  0  0  0  0  0  0  0  0  0  0
    3.5749    0.0003    1.9616 H   0  0  0  0  0  0  0  0  0  0  0  0
    5.2140   -1.5751    0.9058 H   0  0  0  0  0  0  0  0  0  0  0  0
    5.1721   -0.0542   -0.0074 H   0  0  0  0  0  0  0  0  0  0  0  0
    4.3367   -1.4870   -0.6339 H   0  0  0  0  0  0  0  0  0  0  0  0
  1 12  1  0  0  0  0
  2  3  1  0  0  0  0
  2 15  1  0  0  0  0
  2  1  1  0  0  0  0
  3 16  1  0  0  0  0
  4 19  1  0  0  0  0
  4  3  1  0  0  0  0
  5  4  1  0  0  0  0
  5  6  1  0  0  0  0
  6 22  1  0  0  0  0
  6  7  1  0  0  0  0
  7 24  1  0  0  0  0
  7 25  1  0  0  0  0
  8  7  1  0  0  0  0
  8  9  1  0  0  0  0
  9 28  1  0  0  0  0
  9 29  1  0  0  0  0
 10 30  1  0  0  0  0
 10  9  1  0  0  0  0
 11  1  1  0  0  0  0
 13  1  1  0  0  0  0
 14  2  1  0  0  0  0
 17  3  1  0  0  0  0
 18  4  1  0  0  0  0
 20  5  1  0  0  0  0
 21  5  1  0  0  0  0
 23  6  1  0  0  0  0
 26  8  1  0  0  0  0
 27  8  1  0  0  0  0
 31 10  1  0  0  0  0
 32 10  1  0  0  0  0
M  END
>  <Charge>
0.0

>  <InChI>
1/C10H22/c1-3-5-7-9-10-8-6-4-2/h3-10H2,1-2H3

>  <Molecular Formula>
C_{10}H_{22}

>  <Name>
DECANE

>  <SMILES>
CCCCCCCCCC

>  <logK (2-BUTOXYETHANOL)>
4.1

>  <logK (2-ETHOXYETHANOL)>
3.81

>  <logK (4-FORMYLMORPHOLINE)>
3.04

>  <logK (BUTANONE)>
4.42

>  <logK (DECANE)>
4.84

>  <logK (DIIODOMETHANE)>
3.37

>  <logK (DIMETHYLFORMAMIDE)>
3.62

>  <logK (ETHANOL)>
3.92

>  <logK (ETHYLBENZENE)>
4.826

>  <logK (ETHYLENE GLYCOL)>
1.97

>  <logK (HEXANE)>
5.022

>  <logK (METHOXYETHANOL)>
3.466

>  <logK (N-METHYLPYRROLIDONE)>
3.61

>  <logK (P-XYLENE)>
4.897

>  <logK (PROPYLENE CARBONATE)>
2.97

>  <logK (PYRIDINE)>
4.225

>  <logK (SULFOLANE)>
2.713

>  <logK (TERT-AMYL METHYL ETHER)>
4.96

>  <logK (UNDECANE)>
4.96

>  <experimental polarizability source>
@Article{Bosque2002, Title = {Polarizabilities of Solvents from the Chemical Composition}, Author = {Bosque, Ramon and Sales, Joaquim}, Journal = {Journal of Chemical Information and Computer Sciences}, Year = {2002}, Note = {PMID: 12377003}, Number = {5}, Pages = {1154-1163}, Volume = {42}, Doi = {10.1021/ci025528x}, Url = {https://doi.org/10.1021/ci025528x}}

>  <Formula>
C10H22

>  <dipole moment>
0.0191492112627

>  <mean polarizability>
19.37

$$$$
105
 OpenBabel08101817183D

 50 49  0  0  0  0  0  0  0  0999 V2000
   -8.1334    0.5499    0.0921 C   0  0  0  0  0  0  0  0  0  0  0  0
   -6.6199    0.4425    0.2768 C   0  0  0  0  0  0  0  0  0  0  0  0
   -5.9789   -0.5973   -0.6473 C   0  0  0  0  0  0  0  0  0  0  0  0
   -4.4544   -0.7120   -0.5240 C   0  0  0  0  0  0  0  0  0  0  0  0
   -3.9737   -1.3052    0.8050 C   0  0  0  0  0  0  0  0  0  0  0  0
   -2.4571   -1.5134    0.8970 C   0  0  0  0  0  0  0  0  0  0  0  0
   -1.6346   -0.2233    0.9594 C   0  0  0  0  0  0  0  0  0  0  0  0
   -0.1326   -0.4714    1.1159 C   0  0  0  0  0  0  0  0  0  0  0  0
    0.6874    0.8159    1.2343 C   0  0  0  0  0  0  0  0  0  0  0  0
    2.1916    0.6021    1.4418 C   0  0  0  0  0  0  0  0  0  0  0  0
    2.9342    0.0143    0.2378 C   0  0  0  0  0  0  0  0  0  0  0  0
    4.4371   -0.1385    0.4890 C   0  0  0  0  0  0  0  0  0  0  0  0
    5.2307   -0.7496   -0.6735 C   0  0  0  0  0  0  0  0  0  0  0  0
    5.2296    0.0598   -1.9804 C   0  0  0  0  0  0  0  0  0  0  0  0
    5.7596    1.4965   -1.8717 C   0  0  0  0  0  0  0  0  0  0  0  0
    7.2149    1.5981   -1.4113 C   0  0  0  0  0  0  0  0  0  0  0  0
   -8.5702    1.3110    0.7526 H   0  0  0  0  0  0  0  0  0  0  0  0
   -8.6286   -0.4066    0.3136 H   0  0  0  0  0  0  0  0  0  0  0  0
   -8.3892    0.8201   -0.9429 H   0  0  0  0  0  0  0  0  0  0  0  0
   -6.3987    0.1982    1.3271 H   0  0  0  0  0  0  0  0  0  0  0  0
   -6.1532    1.4238    0.0887 H   0  0  0  0  0  0  0  0  0  0  0  0
   -6.4344   -1.5844   -0.4536 H   0  0  0  0  0  0  0  0  0  0  0  0
   -6.2374   -0.3459   -1.6892 H   0  0  0  0  0  0  0  0  0  0  0  0
   -4.0075    0.2840   -0.6778 H   0  0  0  0  0  0  0  0  0  0  0  0
   -4.0756   -1.3441   -1.3444 H   0  0  0  0  0  0  0  0  0  0  0  0
   -4.4766   -2.2753    0.9534 H   0  0  0  0  0  0  0  0  0  0  0  0
   -4.2966   -0.6656    1.6427 H   0  0  0  0  0  0  0  0  0  0  0  0
   -2.2342   -2.1132    1.7947 H   0  0  0  0  0  0  0  0  0  0  0  0
   -2.1204   -2.1196    0.0381 H   0  0  0  0  0  0  0  0  0  0  0  0
   -1.8062    0.3800    0.0532 H   0  0  0  0  0  0  0  0  0  0  0  0
   -1.9920    0.3911    1.8042 H   0  0  0  0  0  0  0  0  0  0  0  0
    0.0410   -1.0919    2.0124 H   0  0  0  0  0  0  0  0  0  0  0  0
    0.2225   -1.0694    0.2610 H   0  0  0  0  0  0  0  0  0  0  0  0
    0.5284    1.4348    0.3343 H   0  0  0  0  0  0  0  0  0  0  0  0
    0.2927    1.4057    2.0779 H   0  0  0  0  0  0  0  0  0  0  0  0
    2.6560    1.5680    1.6998 H   0  0  0  0  0  0  0  0  0  0  0  0
    2.3479   -0.0498    2.3187 H   0  0  0  0  0  0  0  0  0  0  0  0
    2.7610    0.6631   -0.6368 H   0  0  0  0  0  0  0  0  0  0  0  0
    2.5135   -0.9700   -0.0256 H   0  0  0  0  0  0  0  0  0  0  0  0
    4.8595    0.8453    0.7539 H   0  0  0  0  0  0  0  0  0  0  0  0
    4.5828   -0.7707    1.3803 H   0  0  0  0  0  0  0  0  0  0  0  0
    6.2697   -0.9081   -0.3447 H   0  0  0  0  0  0  0  0  0  0  0  0
    4.8319   -1.7547   -0.8887 H   0  0  0  0  0  0  0  0  0  0  0  0
    4.2088    0.0899   -2.3927 H   0  0  0  0  0  0  0  0  0  0  0  0
    5.8350   -0.4851   -2.7237 H   0  0  0  0  0  0  0  0  0  0  0  0
    5.1185    2.0795   -1.1913 H   0  0  0  0  0  0  0  0  0  0  0  0
    5.6588    1.9774   -2.8572 H   0  0  0  0  0  0  0  0  0  0  0  0
    7.8820    1.0323   -2.0783 H   0  0  0  0  0  0  0  0  0  0  0  0
    7.5583    2.6413   -1.4049 H   0  0  0  0  0  0  0  0  0  0  0  0
    7.3523    1.2024   -0.3956 H   0  0  0  0  0  0  0  0  0  0  0  0
  1  2  1  0  0  0  0
  1 18  1  0  0  0  0
  1 17  1  0  0  0  0
  2 20  1  0  0  0  0
  3  4  1  0  0  0  0
  3 22  1  0  0  0  0
  3  2  1  0  0  0  0
  4  5  1  0  0  0  0
  5  6  1  0  0  0  0
  5 26  1  0  0  0  0
  5 27  1  0  0  0  0
  6  7  1  0  0  0  0
  6 28  1  0  0  0  0
  7  8  1  0  0  0  0
  7 31  1  0  0  0  0
  8  9  1  0  0  0  0
  8 32  1  0  0  0  0
  9 10  1  0  0  0  0
  9 35  1  0  0  0  0
 10 36  1  0  0  0  0
 10 37  1  0  0  0  0
 11 12  1  0  0  0  0
 11 10  1  0  0  0  0
 12 40  1  0  0  0  0
 12 41  1  0  0  0  0
 13 42  1  0  0  0  0
 13 12  1  0  0  0  0
 14 15  1  0  0  0  0
 14 13  1  0  0  0  0
 15 16  1  0  0  0  0
 15 46  1  0  0  0  0
 16 49  1  0  0  0  0
 16 50  1  0  0  0  0
 19  1  1  0  0  0  0
 21  2  1  0  0  0  0
 23  3  1  0  0  0  0
 24  4  1  0  0  0  0
 25  4  1  0  0  0  0
 29  6  1  0  0  0  0
 30  7  1  0  0  0  0
 33  8  1  0  0  0  0
 34  9  1  0  0  0  0
 38 11  1  0  0  0  0
 39 11  1  0  0  0  0
 43 13  1  0  0  0  0
 44 14  1  0  0  0  0
 45 14  1  0  0  0  0
 47 15  1  0  0  0  0
 48 16  1  0  0  0  0
M  END
>  <Charge>
0.0

>  <InChI>
1/C16H34/c1-3-5-7-9-11-13-15-16-14-12-10-8-6-4-2/h3-16H2,1-2H3

>  <Molecular Formula>
C_{16}H_{34}

>  <Name>
HEXADECANE

>  <SMILES>
CCCCCCCCCCCCCCCC

>  <logK (CARBON TETRACHLORIDE)>
8.36

>  <logK (DICHLOROETHANE)>
7.08

>  <logK (ETHANOL)>
6.57

>  <experimental polarizability source>
@Article{Bosque2002, Title = {Polarizabilities of Solvents from the Chemical Composition}, Author = {Bosque, Ramon and Sales, Joaquim}, Journal = {Journal of Chemical Information and Computer Sciences}, Year = {2002}, Note = {PMID: 12377003}, Number = {5}, Pages = {1154-1163}, Volume = {42}, Doi = {10.1021/ci025528x}, Url = {https://doi.org/10.1021/ci025528x}}

>  <Formula>
C16H34

>  <dipole moment>
0.0189448851587

$$$$
106
 OpenBabel08101817183D

 56 55  0  0  0  0  0  0  0  0999 V2000
   -8.7979    1.1313    0.5378 C   0  0  0  0  0  0  0  0  0  0  0  0
   -7.4805    0.4615    0.1461 C   0  0  0  0  0  0  0  0  0  0  0  0
   -6.2535    1.3171    0.4771 C   0  0  0  0  0  0  0  0  0  0  0  0
   -4.9094    0.7147    0.0455 C   0  0  0  0  0  0  0  0  0  0  0  0
   -4.5118   -0.5557    0.8060 C   0  0  0  0  0  0  0  0  0  0  0  0
   -3.1064   -1.0825    0.4834 C   0  0  0  0  0  0  0  0  0  0  0  0
   -2.9357   -1.6071   -0.9462 C   0  0  0  0  0  0  0  0  0  0  0  0
   -1.5810   -2.2652   -1.2521 C   0  0  0  0  0  0  0  0  0  0  0  0
   -0.3545   -1.3354   -1.1387 C   0  0  0  0  0  0  0  0  0  0  0  0
    0.3713   -1.3986    0.2123 C   0  0  0  0  0  0  0  0  0  0  0  0
    1.4725   -0.3459    0.4004 C   0  0  0  0  0  0  0  0  0  0  0  0
    2.6725   -0.4995   -0.5403 C   0  0  0  0  0  0  0  0  0  0  0  0
    3.7694    0.5591   -0.3616 C   0  0  0  0  0  0  0  0  0  0  0  0
    4.4821    0.5246    0.9969 C   0  0  0  0  0  0  0  0  0  0  0  0
    5.6969    1.4717    1.1081 C   0  0  0  0  0  0  0  0  0  0  0  0
    7.0634    0.7906    0.9281 C   0  0  0  0  0  0  0  0  0  0  0  0
    7.3428    0.1668   -0.4464 C   0  0  0  0  0  0  0  0  0  0  0  0
    7.4766    1.1813   -1.5830 C   0  0  0  0  0  0  0  0  0  0  0  0
   -9.6624    0.5020    0.2856 H   0  0  0  0  0  0  0  0  0  0  0  0
   -8.8369    1.3312    1.6185 H   0  0  0  0  0  0  0  0  0  0  0  0
   -8.9246    2.0938    0.0208 H   0  0  0  0  0  0  0  0  0  0  0  0
   -7.4054   -0.5134    0.6519 H   0  0  0  0  0  0  0  0  0  0  0  0
   -7.4849    0.2439   -0.9351 H   0  0  0  0  0  0  0  0  0  0  0  0
   -6.2319    1.5141    1.5632 H   0  0  0  0  0  0  0  0  0  0  0  0
   -6.3733    2.3016   -0.0051 H   0  0  0  0  0  0  0  0  0  0  0  0
   -4.1198    1.4710    0.1918 H   0  0  0  0  0  0  0  0  0  0  0  0
   -4.9396    0.5136   -1.0379 H   0  0  0  0  0  0  0  0  0  0  0  0
   -4.5684   -0.3448    1.8872 H   0  0  0  0  0  0  0  0  0  0  0  0
   -5.2451   -1.3558    0.6136 H   0  0  0  0  0  0  0  0  0  0  0  0
   -2.8643   -1.8952    1.1885 H   0  0  0  0  0  0  0  0  0  0  0  0
   -2.3738   -0.2817    0.6778 H   0  0  0  0  0  0  0  0  0  0  0  0
   -3.0916   -0.7853   -1.6643 H   0  0  0  0  0  0  0  0  0  0  0  0
   -3.7351   -2.3404   -1.1481 H   0  0  0  0  0  0  0  0  0  0  0  0
   -1.4393   -3.1382   -0.5919 H   0  0  0  0  0  0  0  0  0  0  0  0
   -1.6327   -2.6711   -2.2740 H   0  0  0  0  0  0  0  0  0  0  0  0
   -0.6693   -0.2949   -1.3326 H   0  0  0  0  0  0  0  0  0  0  0  0
    0.3592   -1.5832   -1.9383 H   0  0  0  0  0  0  0  0  0  0  0  0
   -0.3621   -1.2864    1.0247 H   0  0  0  0  0  0  0  0  0  0  0  0
    0.8039   -2.4064    0.3378 H   0  0  0  0  0  0  0  0  0  0  0  0
    1.0352    0.6594    0.2659 H   0  0  0  0  0  0  0  0  0  0  0  0
    1.8186   -0.3885    1.4447 H   0  0  0  0  0  0  0  0  0  0  0  0
    2.3253   -0.4663   -1.5846 H   0  0  0  0  0  0  0  0  0  0  0  0
    3.1139   -1.5020   -0.3984 H   0  0  0  0  0  0  0  0  0  0  0  0
    3.3360    1.5632   -0.5122 H   0  0  0  0  0  0  0  0  0  0  0  0
    4.5120    0.4313   -1.1645 H   0  0  0  0  0  0  0  0  0  0  0  0
    3.7575    0.7717    1.7866 H   0  0  0  0  0  0  0  0  0  0  0  0
    4.8081   -0.5095    1.2055 H   0  0  0  0  0  0  0  0  0  0  0  0
    5.6965    1.9491    2.0996 H   0  0  0  0  0  0  0  0  0  0  0  0
    5.5871    2.2977    0.3863 H   0  0  0  0  0  0  0  0  0  0  0  0
    7.1561    0.0050    1.6962 H   0  0  0  0  0  0  0  0  0  0  0  0
    7.8576    1.5238    1.1487 H   0  0  0  0  0  0  0  0  0  0  0  0
    6.5550   -0.5642   -0.6901 H   0  0  0  0  0  0  0  0  0  0  0  0
    8.2745   -0.4162   -0.3774 H   0  0  0  0  0  0  0  0  0  0  0  0
    8.2741    1.9085   -1.3700 H   0  0  0  0  0  0  0  0  0  0  0  0
    6.5487    1.7480   -1.7417 H   0  0  0  0  0  0  0  0  0  0  0  0
    7.7243    0.6856   -2.5318 H   0  0  0  0  0  0  0  0  0  0  0  0
  1 20  1  0  0  0  0
  2  3  1  0  0  0  0
  2  1  1  0  0  0  0
  2 22  1  0  0  0  0
  3 24  1  0  0  0  0
  4 26  1  0  0  0  0
  4  3  1  0  0  0  0
  4  5  1  0  0  0  0
  5 28  1  0  0  0  0
  6 31  1  0  0  0  0
  6  5  1  0  0  0  0
  6 30  1  0  0  0  0
  7  6  1  0  0  0  0
  8  9  1  0  0  0  0
  8  7  1  0  0  0  0
  8 34  1  0  0  0  0
  9 10  1  0  0  0  0
 10 39  1  0  0  0  0
 10 11  1  0  0  0  0
 10 38  1  0  0  0  0
 11 41  1  0  0  0  0
 12 43  1  0  0  0  0
 12 13  1  0  0  0  0
 12 11  1  0  0  0  0
 13 14  1  0  0  0  0
 14 15  1  0  0  0  0
 14 47  1  0  0  0  0
 14 46  1  0  0  0  0
 15 48  1  0  0  0  0
 16 15  1  0  0  0  0
 16 51  1  0  0  0  0
 16 50  1  0  0  0  0
 17 53  1  0  0  0  0
 17 16  1  0  0  0  0
 18 54  1  0  0  0  0
 18 17  1  0  0  0  0
 19  1  1  0  0  0  0
 21  1  1  0  0  0  0
 23  2  1  0  0  0  0
 25  3  1  0  0  0  0
 27  4  1  0  0  0  0
 29  5  1  0  0  0  0
 32  7  1  0  0  0  0
 33  7  1  0  0  0  0
 35  8  1  0  0  0  0
 36  9  1  0  0  0  0
 37  9  1  0  0  0  0
 40 11  1  0  0  0  0
 42 12  1  0  0  0  0
 44 13  1  0  0  0  0
 45 13  1  0  0  0  0
 49 15  1  0  0  0  0
 52 17  1  0  0  0  0
 55 18  1  0  0  0  0
 56 18  1  0  0  0  0
M  END
>  <Charge>
0.0

>  <InChI>
1/C18H38/c1-3-5-7-9-11-13-15-17-18-16-14-12-10-8-6-4-2/h3-18H2,1-2H3

>  <Molecular Formula>
C_{18}H_{38}

>  <Name>
OCTADECANE

>  <SMILES>
CCCCCCCCCCCCCCCCCC

>  <logK (BUTYL ACETATE)>
8.75

>  <logK (ETHANOL)>
7.54

>  <dipole moment>
0.110055078421

$$$$
107
 OpenBabel08101817183D

 59 58  0  0  0  0  0  0  0  0999 V2000
    9.0642   -0.7298    0.2243 C   0  0  0  0  0  0  0  0  0  0  0  0
    7.9282   -1.4080   -0.5446 C   0  0  0  0  0  0  0  0  0  0  0  0
    6.5416   -0.8023   -0.2876 C   0  0  0  0  0  0  0  0  0  0  0  0
    6.3508    0.6000   -0.8749 C   0  0  0  0  0  0  0  0  0  0  0  0
    5.0011    1.2511   -0.5494 C   0  0  0  0  0  0  0  0  0  0  0  0
    3.7745    0.5143   -1.0957 C   0  0  0  0  0  0  0  0  0  0  0  0
    2.4699    1.2749   -0.8432 C   0  0  0  0  0  0  0  0  0  0  0  0
    1.2058    0.5813   -1.3685 C   0  0  0  0  0  0  0  0  0  0  0  0
    0.8718   -0.7746   -0.7259 C   0  0  0  0  0  0  0  0  0  0  0  0
    0.6942   -0.7592    0.8010 C   0  0  0  0  0  0  0  0  0  0  0  0
   -0.3741    0.2025    1.3389 C   0  0  0  0  0  0  0  0  0  0  0  0
   -1.8016   -0.0938    0.8715 C   0  0  0  0  0  0  0  0  0  0  0  0
   -2.8295    0.8806    1.4551 C   0  0  0  0  0  0  0  0  0  0  0  0
   -4.2873    0.5698    1.0956 C   0  0  0  0  0  0  0  0  0  0  0  0
   -4.6111    0.6930   -0.3972 C   0  0  0  0  0  0  0  0  0  0  0  0
   -6.0975    0.5257   -0.7369 C   0  0  0  0  0  0  0  0  0  0  0  0
   -6.6528   -0.8762   -0.4619 C   0  0  0  0  0  0  0  0  0  0  0  0
   -8.0917   -1.0912   -0.9476 C   0  0  0  0  0  0  0  0  0  0  0  0
   -9.1351   -0.2442   -0.2160 C   0  0  0  0  0  0  0  0  0  0  0  0
    8.8943   -0.7896    1.3094 H   0  0  0  0  0  0  0  0  0  0  0  0
    9.1617    0.3327   -0.0366 H   0  0  0  0  0  0  0  0  0  0  0  0
   10.0299   -1.2080    0.0126 H   0  0  0  0  0  0  0  0  0  0  0  0
    7.9051   -2.4760   -0.2780 H   0  0  0  0  0  0  0  0  0  0  0  0
    8.1405   -1.3716   -1.6263 H   0  0  0  0  0  0  0  0  0  0  0  0
    6.3559   -0.7694    0.8005 H   0  0  0  0  0  0  0  0  0  0  0  0
    5.7796   -1.4777   -0.7053 H   0  0  0  0  0  0  0  0  0  0  0  0
    6.4756    0.5482   -1.9704 H   0  0  0  0  0  0  0  0  0  0  0  0
    7.1511    1.2625   -0.5104 H   0  0  0  0  0  0  0  0  0  0  0  0
    4.9015    1.3491    0.5455 H   0  0  0  0  0  0  0  0  0  0  0  0
    4.9998    2.2806   -0.9442 H   0  0  0  0  0  0  0  0  0  0  0  0
    3.7131   -0.4873   -0.6434 H   0  0  0  0  0  0  0  0  0  0  0  0
    3.8972    0.3518   -2.1811 H   0  0  0  0  0  0  0  0  0  0  0  0
    2.3694    1.4662    0.2381 H   0  0  0  0  0  0  0  0  0  0  0  0
    2.5451    2.2694   -1.3130 H   0  0  0  0  0  0  0  0  0  0  0  0
    1.3065    0.4338   -2.4567 H   0  0  0  0  0  0  0  0  0  0  0  0
    0.3512    1.2647   -1.2408 H   0  0  0  0  0  0  0  0  0  0  0  0
   -0.0438   -1.1639   -1.1979 H   0  0  0  0  0  0  0  0  0  0  0  0
    1.6592   -1.5032   -0.9745 H   0  0  0  0  0  0  0  0  0  0  0  0
    0.4507   -1.7826    1.1314 H   0  0  0  0  0  0  0  0  0  0  0  0
    1.6573   -0.5161    1.2776 H   0  0  0  0  0  0  0  0  0  0  0  0
   -0.3499    0.1712    2.4408 H   0  0  0  0  0  0  0  0  0  0  0  0
   -0.1152    1.2393    1.0672 H   0  0  0  0  0  0  0  0  0  0  0  0
   -2.0726   -1.1252    1.1583 H   0  0  0  0  0  0  0  0  0  0  0  0
   -1.8459   -0.0627   -0.2279 H   0  0  0  0  0  0  0  0  0  0  0  0
   -2.7266    0.8869    2.5527 H   0  0  0  0  0  0  0  0  0  0  0  0
   -2.5840    1.9042    1.1228 H   0  0  0  0  0  0  0  0  0  0  0  0
   -4.5337   -0.4439    1.4508 H   0  0  0  0  0  0  0  0  0  0  0  0
   -4.9458    1.2556    1.6548 H   0  0  0  0  0  0  0  0  0  0  0  0
   -4.0300   -0.0482   -0.9697 H   0  0  0  0  0  0  0  0  0  0  0  0
   -4.2732    1.6823   -0.7490 H   0  0  0  0  0  0  0  0  0  0  0  0
   -6.6781    1.2768   -0.1766 H   0  0  0  0  0  0  0  0  0  0  0  0
   -6.2477    0.7586   -1.8044 H   0  0  0  0  0  0  0  0  0  0  0  0
   -6.6051   -1.0941    0.6176 H   0  0  0  0  0  0  0  0  0  0  0  0
   -5.9961   -1.6154   -0.9507 H   0  0  0  0  0  0  0  0  0  0  0  0
   -8.3490   -2.1557   -0.8325 H   0  0  0  0  0  0  0  0  0  0  0  0
   -8.1413   -0.8826   -2.0294 H   0  0  0  0  0  0  0  0  0  0  0  0
   -9.1089   -0.4351    0.8670 H   0  0  0  0  0  0  0  0  0  0  0  0
   -8.9685    0.8310   -0.3660 H   0  0  0  0  0  0  0  0  0  0  0  0
  -10.1504   -0.4705   -0.5687 H   0  0  0  0  0  0  0  0  0  0  0  0
  1 20  1  0  0  0  0
  2  3  1  0  0  0  0
  2 23  1  0  0  0  0
  2  1  1  0  0  0  0
  3 25  1  0  0  0  0
  4  5  1  0  0  0  0
  4 28  1  0  0  0  0
  4  3  1  0  0  0  0
  5 29  1  0  0  0  0
  6  7  1  0  0  0  0
  6 31  1  0  0  0  0
  6  5  1  0  0  0  0
  7 33  1  0  0  0  0
  8 36  1  0  0  0  0
  8  7  1  0  0  0  0
  8  9  1  0  0  0  0
  9 10  1  0  0  0  0
 10 39  1  0  0  0  0
 10 40  1  0  0  0  0
 10 11  1  0  0  0  0
 11 41  1  0  0  0  0
 12 43  1  0  0  0  0
 12 11  1  0  0  0  0
 12 13  1  0  0  0  0
 13 45  1  0  0  0  0
 14 47  1  0  0  0  0
 14 13  1  0  0  0  0
 14 48  1  0  0  0  0
 15 14  1  0  0  0  0
 16 17  1  0  0  0  0
 16 15  1  0  0  0  0
 16 51  1  0  0  0  0
 17 53  1  0  0  0  0
 18 55  1  0  0  0  0
 18 17  1  0  0  0  0
 18 19  1  0  0  0  0
 19 57  1  0  0  0  0
 21  1  1  0  0  0  0
 22  1  1  0  0  0  0
 24  2  1  0  0  0  0
 26  3  1  0  0  0  0
 27  4  1  0  0  0  0
 30  5  1  0  0  0  0
 32  6  1  0  0  0  0
 34  7  1  0  0  0  0
 35  8  1  0  0  0  0
 37  9  1  0  0  0  0
 38  9  1  0  0  0  0
 42 11  1  0  0  0  0
 44 12  1  0  0  0  0
 46 13  1  0  0  0  0
 49 15  1  0  0  0  0
 50 15  1  0  0  0  0
 52 16  1  0  0  0  0
 54 17  1  0  0  0  0
 56 18  1  0  0  0  0
 58 19  1  0  0  0  0
 59 19  1  0  0  0  0
M  END
>  <Charge>
0.0

>  <InChI>
1/C19H40/c1-3-5-7-9-11-13-15-17-19-18-16-14-12-10-8-6-4-2/h3-19H2,1-2H3

>  <Molecular Formula>
C_{19}H_{40}

>  <Name>
NONADECANE

>  <SMILES>
CCCCCCCCCCCCCCCCCCC

>  <logK (ETHANOL)>
7.95

>  <dipole moment>
0.141180797186

$$$$
108
 OpenBabel08101817183D

 62 61  0  0  0  0  0  0  0  0999 V2000
    9.4199   -0.5175    1.2286 C   0  0  0  0  0  0  0  0  0  0  0  0
    8.4685    0.3263    0.3783 C   0  0  0  0  0  0  0  0  0  0  0  0
    7.7242   -0.4814   -0.6969 C   0  0  0  0  0  0  0  0  0  0  0  0
    6.6463   -1.4549   -0.1723 C   0  0  0  0  0  0  0  0  0  0  0  0
    5.2065   -0.9272   -0.2472 C   0  0  0  0  0  0  0  0  0  0  0  0
    4.8976    0.2714    0.6563 C   0  0  0  0  0  0  0  0  0  0  0  0
    3.4342    0.7321    0.6013 C   0  0  0  0  0  0  0  0  0  0  0  0
    3.0401    1.4174   -0.7123 C   0  0  0  0  0  0  0  0  0  0  0  0
    1.5788    1.8809   -0.7732 C   0  0  0  0  0  0  0  0  0  0  0  0
    0.5552    0.7464   -0.8826 C   0  0  0  0  0  0  0  0  0  0  0  0
   -0.8895    1.2411   -0.9751 C   0  0  0  0  0  0  0  0  0  0  0  0
   -1.9178    0.1228   -1.1603 C   0  0  0  0  0  0  0  0  0  0  0  0
   -3.3603    0.6352   -1.1983 C   0  0  0  0  0  0  0  0  0  0  0  0
   -4.4150   -0.4298   -1.5293 C   0  0  0  0  0  0  0  0  0  0  0  0
   -4.5270   -1.5919   -0.5306 C   0  0  0  0  0  0  0  0  0  0  0  0
   -4.8493   -1.1878    0.9168 C   0  0  0  0  0  0  0  0  0  0  0  0
   -6.1401   -0.3792    1.1118 C   0  0  0  0  0  0  0  0  0  0  0  0
   -7.4201   -1.1159    0.7052 C   0  0  0  0  0  0  0  0  0  0  0  0
   -8.7144   -0.3628    1.0425 C   0  0  0  0  0  0  0  0  0  0  0  0
   -8.9040    0.9463    0.2728 C   0  0  0  0  0  0  0  0  0  0  0  0
    8.8896   -1.3156    1.7671 H   0  0  0  0  0  0  0  0  0  0  0  0
   10.1865   -0.9967    0.6019 H   0  0  0  0  0  0  0  0  0  0  0  0
    9.9373    0.0958    1.9790 H   0  0  0  0  0  0  0  0  0  0  0  0
    7.7432    0.8343    1.0326 H   0  0  0  0  0  0  0  0  0  0  0  0
    9.0443    1.1256   -0.1147 H   0  0  0  0  0  0  0  0  0  0  0  0
    7.2560    0.2131   -1.4137 H   0  0  0  0  0  0  0  0  0  0  0  0
    8.4746   -1.0432   -1.2765 H   0  0  0  0  0  0  0  0  0  0  0  0
    6.8741   -1.7404    0.8683 H   0  0  0  0  0  0  0  0  0  0  0  0
    6.6912   -2.3908   -0.7495 H   0  0  0  0  0  0  0  0  0  0  0  0
    4.9850   -0.6703   -1.2961 H   0  0  0  0  0  0  0  0  0  0  0  0
    4.5152   -1.7457    0.0160 H   0  0  0  0  0  0  0  0  0  0  0  0
    5.1514    0.0024    1.6952 H   0  0  0  0  0  0  0  0  0  0  0  0
    5.5489    1.1213    0.3935 H   0  0  0  0  0  0  0  0  0  0  0  0
    2.7811   -0.1367    0.7864 H   0  0  0  0  0  0  0  0  0  0  0  0
    3.2463    1.4360    1.4290 H   0  0  0  0  0  0  0  0  0  0  0  0
    3.2333    0.7437   -1.5632 H   0  0  0  0  0  0  0  0  0  0  0  0
    3.7002    2.2885   -0.8593 H   0  0  0  0  0  0  0  0  0  0  0  0
    1.4520    2.5494   -1.6405 H   0  0  0  0  0  0  0  0  0  0  0  0
    1.3527    2.4939    0.1165 H   0  0  0  0  0  0  0  0  0  0  0  0
    0.7899    0.1379   -1.7733 H   0  0  0  0  0  0  0  0  0  0  0  0
    0.6472    0.0680   -0.0189 H   0  0  0  0  0  0  0  0  0  0  0  0
   -1.1355    1.8152   -0.0652 H   0  0  0  0  0  0  0  0  0  0  0  0
   -0.9771    1.9539   -1.8133 H   0  0  0  0  0  0  0  0  0  0  0  0
   -1.8002   -0.6135   -0.3481 H   0  0  0  0  0  0  0  0  0  0  0  0
   -1.6993   -0.4206   -2.0961 H   0  0  0  0  0  0  0  0  0  0  0  0
   -3.4303    1.4386   -1.9501 H   0  0  0  0  0  0  0  0  0  0  0  0
   -3.5981    1.1121   -0.2329 H   0  0  0  0  0  0  0  0  0  0  0  0
   -4.1959   -0.8477   -2.5258 H   0  0  0  0  0  0  0  0  0  0  0  0
   -5.3953    0.0641   -1.6244 H   0  0  0  0  0  0  0  0  0  0  0  0
   -3.5873   -2.1666   -0.5285 H   0  0  0  0  0  0  0  0  0  0  0  0
   -5.2953   -2.2909   -0.8970 H   0  0  0  0  0  0  0  0  0  0  0  0
   -4.9067   -2.1034    1.5284 H   0  0  0  0  0  0  0  0  0  0  0  0
   -4.0073   -0.6084    1.3283 H   0  0  0  0  0  0  0  0  0  0  0  0
   -6.0647    0.5710    0.5602 H   0  0  0  0  0  0  0  0  0  0  0  0
   -6.2180   -0.1006    2.1762 H   0  0  0  0  0  0  0  0  0  0  0  0
   -7.4380   -2.0973    1.2085 H   0  0  0  0  0  0  0  0  0  0  0  0
   -7.4044   -1.3300   -0.3765 H   0  0  0  0  0  0  0  0  0  0  0  0
   -8.7392   -0.1581    2.1259 H   0  0  0  0  0  0  0  0  0  0  0  0
   -9.5713   -1.0243    0.8396 H   0  0  0  0  0  0  0  0  0  0  0  0
   -8.1170    1.6770    0.5038 H   0  0  0  0  0  0  0  0  0  0  0  0
   -9.8670    1.4148    0.5180 H   0  0  0  0  0  0  0  0  0  0  0  0
   -8.8868    0.7723   -0.8134 H   0  0  0  0  0  0  0  0  0  0  0  0
  1 21  1  0  0  0  0
  1 23  1  0  0  0  0
  2 24  1  0  0  0  0
  2  1  1  0  0  0  0
  3  4  1  0  0  0  0
  3  2  1  0  0  0  0
  4 28  1  0  0  0  0
  5  4  1  0  0  0  0
  5 31  1  0  0  0  0
  5  6  1  0  0  0  0
  6 32  1  0  0  0  0
  7  6  1  0  0  0  0
  7 34  1  0  0  0  0
  7 35  1  0  0  0  0
  8  7  1  0  0  0  0
  9  8  1  0  0  0  0
  9 39  1  0  0  0  0
 10  9  1  0  0  0  0
 10 41  1  0  0  0  0
 11 10  1  0  0  0  0
 11 42  1  0  0  0  0
 12 11  1  0  0  0  0
 12 44  1  0  0  0  0
 13 12  1  0  0  0  0
 13 47  1  0  0  0  0
 14 13  1  0  0  0  0
 14 15  1  0  0  0  0
 15 50  1  0  0  0  0
 15 16  1  0  0  0  0
 16 17  1  0  0  0  0
 16 53  1  0  0  0  0
 16 52  1  0  0  0  0
 17 55  1  0  0  0  0
 18 19  1  0  0  0  0
 18 17  1  0  0  0  0
 18 56  1  0  0  0  0
 19 58  1  0  0  0  0
 20 60  1  0  0  0  0
 20 61  1  0  0  0  0
 20 19  1  0  0  0  0
 22  1  1  0  0  0  0
 25  2  1  0  0  0  0
 26  3  1  0  0  0  0
 27  3  1  0  0  0  0
 29  4  1  0  0  0  0
 30  5  1  0  0  0  0
 33  6  1  0  0  0  0
 36  8  1  0  0  0  0
 37  8  1  0  0  0  0
 38  9  1  0  0  0  0
 40 10  1  0  0  0  0
 43 11  1  0  0  0  0
 45 12  1  0  0  0  0
 46 13  1  0  0  0  0
 48 14  1  0  0  0  0
 49 14  1  0  0  0  0
 51 15  1  0  0  0  0
 54 17  1  0  0  0  0
 57 18  1  0  0  0  0
 59 19  1  0  0  0  0
 62 20  1  0  0  0  0
M  END
>  <Charge>
0.0

>  <InChI>
1/C20H42/c1-3-5-7-9-11-13-15-17-19-20-18-16-14-12-10-8-6-4-2/h3-20H2,1-2H3

>  <Molecular Formula>
C_{20}H_{42}

>  <Name>
ICOSANE

>  <SMILES>
CCCCCCCCCCCCCCCCCCCC

>  <logK (ETHANOL)>
8.34

>  <dipole moment>
0.0619961383981

$$$$
109
 OpenBabel08101817183D

  8  7  0  0  0  0  0  0  0  0999 V2000
   -0.8059    0.0812    0.0897 C   0  0  0  0  0  0  0  0  0  0  0  0
    0.6490   -0.2493   -0.1555 C   0  0  0  0  0  0  0  0  0  0  0  0
    1.8400    1.2161    0.4306 Br  0  0  0  0  0  0  0  0  0  0  0  0
   -1.0058    0.2455    1.1552 H   0  0  0  0  0  0  0  0  0  0  0  0
   -1.4302   -0.7595   -0.2505 H   0  0  0  0  0  0  0  0  0  0  0  0
   -1.1118    0.9783   -0.4617 H   0  0  0  0  0  0  0  0  0  0  0  0
    0.9856   -1.1241    0.4081 H   0  0  0  0  0  0  0  0  0  0  0  0
    0.8790   -0.3880   -1.2158 H   0  0  0  0  0  0  0  0  0  0  0  0
  1  4  1  0  0  0  0
  2  1  1  0  0  0  0
  2  7  1  0  0  0  0
  2  3  1  0  0  0  0
  5  1  1  0  0  0  0
  6  1  1  0  0  0  0
  8  2  1  0  0  0  0
M  END
>  <Charge>
0.0

>  <InChI>
1/C2H5Br/c1-2-3/h2H2,1H3

>  <Molecular Formula>
C_{2}H_{5}Br

>  <Name>
BROMOETHANE

>  <SMILES>
CCBr

>  <logK (1-CHLOROBUTANE)>
2.565

>  <logK (1-HEXADECENE)>
2.13157293555

>  <logK (1-OCTANOL)>
2.11

>  <logK (2,2,4-TRIMETHYLPENTANE)>
2.163

>  <logK (ACETOPHENONE)>
2.469

>  <logK (BENZONITRILE)>
2.498

>  <logK (BUTANONE)>
2.59

>  <logK (CARBON TETRACHLORIDE)>
2.53

>  <logK (CHLOROBENZENE)>
2.57

>  <logK (CHLOROFORM)>
2.76

>  <logK (CYCLOHEXANONE)>
2.601

>  <logK (DICHLOROETHANE)>
2.64

>  <logK (DIMETHYLFORMAMIDE)>
2.36

>  <logK (ETHANOL)>
2.22

>  <logK (ETHYL ACETATE)>
2.59

>  <logK (HEPTANE)>
2.23

>  <logK (HEXADECANE)>
2.02

>  <logK (HEXANE)>
2.302

>  <logK (N,N-DIMETHYLACETAMIDE)>
2.52

>  <logK (N-BUTANOL)>
2.22

>  <logK (OCTANE)>
2.19

>  <logK (P-XYLENE)>
2.502

>  <logK (PHENYLAMINE)>
2.303

>  <logK (TOLUENE)>
2.575

>  <mean polarizability>
7.0

>  <dipole moment>
2.10908618277

>  <Formula>
C2H5Br

$$$$
110
 OpenBabel08101817183D

 11 10  0  0  0  0  0  0  0  0999 V2000
    1.2315   -0.3468   -0.2712 C   0  0  0  0  0  0  0  0  0  0  0  0
   -0.0282    0.4962   -0.2096 C   0  0  0  0  0  0  0  0  0  0  0  0
   -1.2529   -0.2588    0.2714 C   0  0  0  0  0  0  0  0  0  0  0  0
    0.3212    2.2408    1.1060 I   0  0  0  0  0  0  0  0  0  0  0  0
    1.4748   -0.7724    0.7109 H   0  0  0  0  0  0  0  0  0  0  0  0
    1.0690   -1.1822   -0.9718 H   0  0  0  0  0  0  0  0  0  0  0  0
    2.0950    0.2297   -0.6216 H   0  0  0  0  0  0  0  0  0  0  0  0
   -0.2204    0.9882   -1.1692 H   0  0  0  0  0  0  0  0  0  0  0  0
   -1.0934   -0.6815    1.2719 H   0  0  0  0  0  0  0  0  0  0  0  0
   -1.4537   -1.0929   -0.4208 H   0  0  0  0  0  0  0  0  0  0  0  0
   -2.1429    0.3797    0.3039 H   0  0  0  0  0  0  0  0  0  0  0  0
  1  2  1  0  0  0  0
  1  5  1  0  0  0  0
  2  3  1  0  0  0  0
  2  4  1  0  0  0  0
  3 11  1  0  0  0  0
  3  9  1  0  0  0  0
  6  1  1  0  0  0  0
  7  1  1  0  0  0  0
  8  2  1  0  0  0  0
 10  3  1  0  0  0  0
M  END
>  <Charge>
0.0

>  <InChI>
1/C3H7I/c1-3(2)4/h3H,1-2H3

>  <Molecular Formula>
C_{3}H_{7}I

>  <Name>
2-IODOPROPANE

>  <SMILES>
CC(C)I

>  <logK (ETHANOL)>
2.92

>  <mean polarizability>
10.85

>  <dipole moment>
2.26472757144

$$$$
111
 OpenBabel08101817183D

 13 12  0  0  0  0  0  0  0  0999 V2000
   -0.3104    1.3506    0.0628 C   0  0  0  0  0  0  0  0  0  0  0  0
   -0.0719   -0.0232    0.4746 N   0  0  0  0  0  0  0  0  0  0  0  0
    1.3032   -0.4210    0.2202 C   0  0  0  0  0  0  0  0  0  0  0  0
   -1.0122   -0.9358   -0.1555 C   0  0  0  0  0  0  0  0  0  0  0  0
   -1.3391    1.6420    0.3144 H   0  0  0  0  0  0  0  0  0  0  0  0
   -0.1670    1.5054   -1.0313 H   0  0  0  0  0  0  0  0  0  0  0  0
    0.3767    2.0235    0.5933 H   0  0  0  0  0  0  0  0  0  0  0  0
    1.4703   -1.4421    0.5889 H   0  0  0  0  0  0  0  0  0  0  0  0
    1.5670   -0.3986   -0.8620 H   0  0  0  0  0  0  0  0  0  0  0  0
    1.9903    0.2522    0.7506 H   0  0  0  0  0  0  0  0  0  0  0  0
   -2.0407   -0.6439    0.0963 H   0  0  0  0  0  0  0  0  0  0  0  0
   -0.8449   -1.9568    0.2134 H   0  0  0  0  0  0  0  0  0  0  0  0
   -0.9214   -0.9521   -1.2658 H   0  0  0  0  0  0  0  0  0  0  0  0
  1  5  1  0  0  0  0
  1  2  1  0  0  0  0
  1  7  1  0  0  0  0
  3  2  1  0  0  0  0
  3  8  1  0  0  0  0
  3 10  1  0  0  0  0
  4 11  1  0  0  0  0
  4 12  1  0  0  0  0
  4  2  1  0  0  0  0
  6  1  1  0  0  0  0
  9  3  1  0  0  0  0
 13  4  1  0  0  0  0
M  END
>  <Charge>
0.0

>  <InChI>
1/C3H9N/c1-4(2)3/h1-3H3

>  <Molecular Formula>
C_{3}H_{9}N

>  <Name>
TRIMETHYLAMINE

>  <SMILES>
CN(C)C

>  <logK (1-OCTANOL)>
1.94

>  <logK (1-PROPANOL)>
2.56

>  <logK (ACETONE)>
1.88

>  <logK (ACETOPHENONE)>
1.8

>  <logK (CARBON TETRACHLORIDE)>
2.25

>  <logK (CHLOROBENZENE)>
2.05

>  <logK (CHLOROFORM)>
2.86

>  <logK (DIETHYL ETHER)>
1.73

>  <logK (DIMETHYLFORMAMIDE)>
1.77

>  <logK (ETHANOL)>
2.67

>  <logK (HEPTANE)>
1.79

>  <logK (HEXADECANE)>
1.62

>  <logK (HEXANE)>
1.926

>  <logK (N-BUTANOL)>
2.13

>  <logK (TOLUENE)>
1.986

>  <mean polarizability>
7.95

>  <dipole moment>
0.40843519513

$$$$
112
 OpenBabel08101817183D

 12 11  0  0  0  0  0  0  0  0999 V2000
   -1.2592   -0.5928   -0.0002 C   0  0  0  0  0  0  0  0  0  0  0  0
    0.2332   -0.3543   -0.1667 C   0  0  0  0  0  0  0  0  0  0  0  0
    0.5958    1.1284   -0.1495 C   0  0  0  0  0  0  0  0  0  0  0  0
    0.8791   -1.0625    0.9079 O   0  0  0  0  0  0  0  0  0  0  0  0
   -1.6063   -0.1754    0.9551 H   0  0  0  0  0  0  0  0  0  0  0  0
   -1.8202   -0.1160   -0.8143 H   0  0  0  0  0  0  0  0  0  0  0  0
   -1.4803   -1.6673   -0.0070 H   0  0  0  0  0  0  0  0  0  0  0  0
    0.5564   -0.7896   -1.1322 H   0  0  0  0  0  0  0  0  0  0  0  0
    0.1176    1.6594   -0.9845 H   0  0  0  0  0  0  0  0  0  0  0  0
    0.2695    1.5913    0.7921 H   0  0  0  0  0  0  0  0  0  0  0  0
    1.6824    1.2710   -0.2454 H   0  0  0  0  0  0  0  0  0  0  0  0
    1.8319   -0.8923    0.8447 H   0  0  0  0  0  0  0  0  0  0  0  0
  1  5  1  0  0  0  0
  2  3  1  0  0  0  0
  2  1  1  0  0  0  0
  2  4  1  0  0  0  0
  3 10  1  0  0  0  0
  6  1  1  0  0  0  0
  7  1  1  0  0  0  0
  8  2  1  0  0  0  0
  9  3  1  0  0  0  0
 11  3  1  0  0  0  0
 12  4  1  0  0  0  0
M  END
>  <Charge>
0.0

>  <InChI>
1/C3H8O/c1-3(2)4/h3-4H,1-2H3

>  <Molecular Formula>
C_{3}H_{8}O

>  <Name>
ISOPROPANOL

>  <SMILES>
CC(C)O

>  <logK (1,4-DIOXANE)>
3.2

>  <logK (1-OCTANOL)>
3.38

>  <logK (1-PROPANOL)>
3.67

>  <logK (2,2,4-TRIMETHYLPENTANE)>
2.124

>  <logK (2-ETHOXYETHANOL)>
3.571

>  <logK (2-ISOPROPOXYETHANOL)>
3.47456742029

>  <logK (2-PENTANOL)>
3.556

>  <logK (2-PROPOXYETHANOL)>
3.38582086755

>  <logK (4-FORMYLMORPHOLINE)>
3.32

>  <logK (5,8,11,14-TETRAOXAOCTADECANE)>
2.922

>  <logK (BUTANONE)>
3.33

>  <logK (CARBON TETRACHLORIDE)>
2.124

>  <logK (CHLOROFORM)>
3.13

>  <logK (DECAN-1-OL)>
3.29

>  <logK (DIETHYLENE GLYCOL DIBUTYL ETHER)>
2.922

>  <logK (DIIODOMETHANE)>
2.17

>  <logK (DIISOPROPYL ETHER)>
2.828

>  <logK (EPSILON-CAPROLACTONE)>
3.213

>  <logK (ETHANOL)>
3.86

>  <logK (ETHYL ACETATE)>
3.03

>  <logK (HEPTANE)>
1.91

>  <logK (HEXADECANE)>
1.821

>  <logK (HEXANE)>
2.02

>  <logK (ISOPROPANOL)>
3.65

>  <logK (M-XYLENE)>
2.443

>  <logK (METHOXYETHANOL)>
3.414

>  <logK (METHYL ACETATE)>
3.27

>  <logK (METHYL TERT-BUTYL ETHER)>
3.09

>  <logK (N,N-DIBUTYLFORMAMID)>
3.45

>  <logK (N,N-DIETHYLACETAMIDE)>
3.81

>  <logK (N,N-DIMETHYLACETAMIDE)>
3.88

>  <logK (N-BUTANOL)>
3.68

>  <logK (N-ETHYLACETAMIDE)>
3.73

>  <logK (N-ETHYLFORMAMIDE)>
3.69

>  <logK (N-METHYLACETAMIDE)>
3.75

>  <logK (N-METHYLPYRROLIDONE)>
3.73

>  <logK (P-XYLENE)>
2.486

>  <logK (PENTANOL)>
3.66

>  <logK (PROPYL ETHER)>
2.742

>  <logK (PYRIDINE)>
3.636

>  <logK (SULFOLANE)>
2.964

>  <logK (TERT-BUTANOL)>
3.68

>  <logK (TETRAETHYLENE GLYCOL DIMETHYL ETHER)>
3.051

>  <logK (TETRAHYDROFURAN)>
3.44

>  <logK (TRIBUTYL PHOSPHATE)>
3.47

>  <mean polarizability>
7.0

>  <dipole moment>
1.58388609519

>  <Formula>
C3H8O

$$$$
113
 OpenBabel08101817183D

  3  2  0  0  0  0  0  0  0  0999 V2000
   -0.0000    0.0000   -0.0000 C   0  0  0  0  0  0  0  0  0  0  0  0
   -1.5612    0.0122    0.0000 S   0  0  0  0  0  0  0  0  0  0  0  0
    1.5612   -0.0122    0.0000 S   0  0  0  0  0  0  0  0  0  0  0  0
  1  2  1  0  0  0  0
  1  3  1  0  0  0  0
M  RAD  3   1   3   2   2   3   2
M  END
>  <Charge>
0.0

>  <InChI>
1/CS2/c2-1-3

>  <Molecular Formula>
CS_{2}

>  <Name>
CARBON DISULFIDE

>  <SMILES>
C(=S)=S

>  <logK (1,4-DIOXANE)>
2.22

>  <logK (1-OCTANOL)>
2.28

>  <logK (2,2,4-TRIMETHYLPENTANE)>
2.379

>  <logK (ACETONE)>
2.25

>  <logK (ACETOPHENONE)>
2.343

>  <logK (BENZONITRILE)>
2.332

>  <logK (BUTANONE)>
2.27

>  <logK (CARBON TETRACHLORIDE)>
2.66

>  <logK (CYCLOHEXANONE)>
2.424

>  <logK (DICHLOROETHANE)>
2.41

>  <logK (DIMETHYLFORMAMIDE)>
2.2

>  <logK (ETHANOL)>
2.27

>  <logK (ETHYL ACETATE)>
2.29

>  <logK (HEPTANE)>
2.44

>  <logK (N-BUTANOL)>
2.26

>  <logK (OCTANE)>
2.41

>  <logK (P-XYLENE)>
2.6

>  <logK (PENTANOL)>
2.43

>  <logK (TOLUENE)>
2.59

>  <logK (TRIBUTYL PHOSPHATE)>
2.27

>  <mean polarizability>
7.91

>  <dipole moment>
6.27978496757e-09

>  <experimental polarizability source>
@Article{Bosque2002, Title = {Polarizabilities of Solvents from the Chemical Composition}, Author = {Bosque, Ramon and Sales, Joaquim}, Journal = {Journal of Chemical Information and Computer Sciences}, Year = {2002}, Note = {PMID: 12377003}, Number = {5}, Pages = {1154-1163}, Volume = {42}, Doi = {10.1021/ci025528x}, Url = {https://doi.org/10.1021/ci025528x}}

>  <Formula>
CS2

$$$$
114
 OpenBabel08101817183D

 18 18  0  0  0  0  0  0  0  0999 V2000
    2.9250    0.1301   -0.1001 C   0  0  0  0  0  0  0  0  0  0  0  0
    1.4212    0.0586   -0.0482 C   0  0  0  0  0  0  0  0  0  0  0  0
    0.6296    0.9868   -0.7400 C   0  0  0  0  0  0  0  0  0  0  0  0
   -0.7618    0.9223   -0.6967 C   0  0  0  0  0  0  0  0  0  0  0  0
   -1.4212   -0.0713    0.0413 C   0  0  0  0  0  0  0  0  0  0  0  0
   -0.6310   -0.9995    0.7291 C   0  0  0  0  0  0  0  0  0  0  0  0
    0.7630   -0.9351    0.6853 C   0  0  0  0  0  0  0  0  0  0  0  0
   -2.9250   -0.1213    0.1110 C   0  0  0  0  0  0  0  0  0  0  0  0
    3.2961    0.0346   -1.1309 H   0  0  0  0  0  0  0  0  0  0  0  0
    3.2939    1.0915    0.2862 H   0  0  0  0  0  0  0  0  0  0  0  0
    3.3833   -0.6686    0.4963 H   0  0  0  0  0  0  0  0  0  0  0  0
    1.1119    1.7727   -1.3249 H   0  0  0  0  0  0  0  0  0  0  0  0
   -1.3503    1.6567   -1.2504 H   0  0  0  0  0  0  0  0  0  0  0  0
   -1.1130   -1.7902    1.3077 H   0  0  0  0  0  0  0  0  0  0  0  0
    1.3519   -1.6754    1.2304 H   0  0  0  0  0  0  0  0  0  0  0  0
   -3.3043    0.4820    0.9503 H   0  0  0  0  0  0  0  0  0  0  0  0
   -3.2863   -1.1474    0.2590 H   0  0  0  0  0  0  0  0  0  0  0  0
   -3.3830    0.2732   -0.8055 H   0  0  0  0  0  0  0  0  0  0  0  0
  1  2  1  0  0  0  0
  1 10  1  0  0  0  0
  1 11  1  0  0  0  0
  2  7  2  0  0  0  0
  3  4  2  0  0  0  0
  3  2  1  0  0  0  0
  4  5  1  0  0  0  0
  5  8  1  0  0  0  0
  5  6  2  0  0  0  0
  6 14  1  0  0  0  0
  7  6  1  0  0  0  0
  7 15  1  0  0  0  0
  8 17  1  0  0  0  0
  8 16  1  0  0  0  0
  9  1  1  0  0  0  0
 12  3  1  0  0  0  0
 13  4  1  0  0  0  0
 18  8  1  0  0  0  0
M  END
>  <Charge>
0.0

>  <InChI>
1/C8H10/c1-7-3-5-8(2)6-4-7/h3-6H,1-2H3

>  <Molecular Formula>
C_{8}H_{10}

>  <Name>
P-XYLENE

>  <SMILES>
Cc1ccc(cc1)C

>  <logK ((\xb1)-1,2-PROPANEDIOL)>
2.954

>  <logK (1-OCTANOL)>
3.79

>  <logK (2,2,4-TRIMETHYLPENTANE)>
3.948

>  <logK (2-BUTOXYETHANOL)>
3.68

>  <logK (2-ETHOXYETHANOL)>
3.808

>  <logK (2-ISOPROPOXYETHANOL)>
3.84576814349

>  <logK (2-PROPOXYETHANOL)>
3.85214560612

>  <logK (4-FORMYLMORPHOLINE)>
3.65

>  <logK (5,8,11,14-TETRAOXAOCTADECANE)>
4.028

>  <logK (BUTYL ACETATE)>
4.47

>  <logK (CARBON TETRACHLORIDE)>
4.2

>  <logK (DICHLOROETHANE)>
4.37

>  <logK (DIETHYLENE GLYCOL DIBUTYL ETHER)>
4.051

>  <logK (ETHANOL)>
3.73

>  <logK (ETHYLBENZOATE)>
4.133

>  <logK (ETHYLENE GLYCOL)>
2.49

>  <logK (FORMAMIDE)>
2.4

>  <logK (HEPTANE)>
3.95

>  <logK (HEXADECANE)>
3.858

>  <logK (ISOBUTANOL)>
3.62

>  <logK (METHOXYETHANOL)>
3.714

>  <logK (N-METHYLFORMAMIDE)>
3.52

>  <logK (P-XYLENE)>
4.233

>  <logK (PROPYLENE CARBONATE)>
3.54

>  <logK (PYRIDINE)>
4.223

>  <logK (SULFOLANE)>
3.523

>  <logK (TETRAETHYLENE GLYCOL DIMETHYL ETHER)>
3.842

>  <logK (TOLUENE)>
4.347

>  <logK (TRIBUTYL PHOSPHATE)>
3.97

>  <Formula>
C8H10

>  <mean polarizability>
14.46

>  <dipole moment>
0.058186298846

$$$$
115
 OpenBabel08101817183D

 11 11  0  0  0  0  0  0  0  0999 V2000
    0.0463    1.1937    0.0523 C   0  0  0  0  0  0  0  0  0  0  0  0
   -1.1783    0.5270    0.0602 C   0  0  0  0  0  0  0  0  0  0  0  0
   -1.1774   -0.8680   -0.0026 C   0  0  0  0  0  0  0  0  0  0  0  0
   -0.0625   -1.6098   -0.0706 N   0  0  0  0  0  0  0  0  0  0  0  0
    1.1068   -0.9533   -0.0773 C   0  0  0  0  0  0  0  0  0  0  0  0
    1.2157    0.4375   -0.0180 C   0  0  0  0  0  0  0  0  0  0  0  0
    0.0885    2.2822    0.1001 H   0  0  0  0  0  0  0  0  0  0  0  0
   -2.1193    1.0741    0.1143 H   0  0  0  0  0  0  0  0  0  0  0  0
   -2.1205   -1.4209    0.0018 H   0  0  0  0  0  0  0  0  0  0  0  0
    2.0043   -1.5751   -0.1332 H   0  0  0  0  0  0  0  0  0  0  0  0
    2.1964    0.9129   -0.0271 H   0  0  0  0  0  0  0  0  0  0  0  0
  1  2  1  0  0  0  0
  1  7  1  0  0  0  0
  2  8  1  0  0  0  0
  3  9  1  0  0  0  0
  3  2  2  0  0  0  0
  4  3  1  0  0  0  0
  5  4  2  0  0  0  0
  5  6  1  0  0  0  0
  6  1  2  0  0  0  0
 10  5  1  0  0  0  0
 11  6  1  0  0  0  0
M  END
>  <Charge>
0.0

>  <InChI>
1/C5H5N/c1-2-4-6-5-3-1/h1-5H

>  <Molecular Formula>
C_{5}H_{5}N

>  <Name>
PYRIDINE

>  <SMILES>
c1ccncc1

>  <logK ((\xb1)-2-BUTANOL)>
4.13

>  <logK (1,4-DIOXANE)>
4.17

>  <logK (1-PROPANOL)>
3.99

>  <logK (2,2,4-TRIMETHYLPENTANE)>
2.956

>  <logK (5,8,11,14-TETRAOXAOCTADECANE)>
3.706

>  <logK (ACETONE)>
3.97

>  <logK (BUTANONE)>
3.94

>  <logK (CARBON TETRACHLORIDE)>
3.765

>  <logK (CHLOROFORM)>
4.73

>  <logK (DICHLOROETHANE)>
4.16

>  <logK (DIETHYLENE GLYCOL DIBUTYL ETHER)>
3.766

>  <logK (ETHANOL)>
4.18

>  <logK (HEXADECANE)>
3.003

>  <logK (HEXANE)>
3.07

>  <logK (ISOBUTANOL)>
4.16

>  <logK (ISOPROPANOL)>
3.86

>  <logK (METHOXYETHANOL)>
3.982

>  <logK (N,N-DIBUTYLFORMAMID)>
3.9

>  <logK (N,N-DIMETHYLACETAMIDE)>
4.22

>  <logK (N-BUTANOL)>
3.95

>  <logK (N-METHYLACETAMIDE)>
3.92

>  <logK (PYRIDINE)>
4.043

>  <logK (SULFOLANE)>
3.83

>  <logK (TERT-BUTANOL)>
3.96

>  <logK (TETRAETHYLENE GLYCOL DIMETHYL ETHER)>
3.832

>  <logK (TOLUENE)>
3.73

>  <mean polarizability>
9.36

>  <dipole moment>
2.22340244143

>  <experimental polarizability source>
@Article{Bosque2002, Title = {Polarizabilities of Solvents from the Chemical Composition}, Author = {Bosque, Ramon and Sales, Joaquim}, Journal = {Journal of Chemical Information and Computer Sciences}, Year = {2002}, Note = {PMID: 12377003}, Number = {5}, Pages = {1154-1163}, Volume = {42}, Doi = {10.1021/ci025528x}, Url = {https://doi.org/10.1021/ci025528x}}

>  <Formula>
C5H5N

$$$$
116
 OpenBabel08101817183D

 14 13  0  0  0  0  0  0  0  0999 V2000
   -1.8902    0.8984   -0.1079 C   0  0  0  0  0  0  0  0  0  0  0  0
   -1.2784   -0.4434   -0.4651 C   0  0  0  0  0  0  0  0  0  0  0  0
    0.1442   -0.3201   -0.7417 O   0  0  0  0  0  0  0  0  0  0  0  0
    0.9729   -0.4258    0.3331 C   0  0  0  0  0  0  0  0  0  0  0  0
    0.5933   -0.6348    1.4673 O   0  0  0  0  0  0  0  0  0  0  0  0
    2.4132   -0.2351   -0.0712 C   0  0  0  0  0  0  0  0  0  0  0  0
   -1.4664    1.2842    0.8271 H   0  0  0  0  0  0  0  0  0  0  0  0
   -2.9743    0.7843    0.0312 H   0  0  0  0  0  0  0  0  0  0  0  0
   -1.7233    1.6335   -0.9057 H   0  0  0  0  0  0  0  0  0  0  0  0
   -1.6995   -0.8445   -1.3951 H   0  0  0  0  0  0  0  0  0  0  0  0
   -1.4158   -1.1714    0.3444 H   0  0  0  0  0  0  0  0  0  0  0  0
    2.5508   -0.3039   -1.1544 H   0  0  0  0  0  0  0  0  0  0  0  0
    2.7418    0.7573    0.2669 H   0  0  0  0  0  0  0  0  0  0  0  0
    3.0315   -0.9786    0.4436 H   0  0  0  0  0  0  0  0  0  0  0  0
  1  8  1  0  0  0  0
  1  7  1  0  0  0  0
  2  1  1  0  0  0  0
  2 11  1  0  0  0  0
  3  2  1  0  0  0  0
  3  4  1  0  0  0  0
  4  5  2  0  0  0  0
  6 13  1  0  0  0  0
  6  4  1  0  0  0  0
  6 14  1  0  0  0  0
  9  1  1  0  0  0  0
 10  2  1  0  0  0  0
 12  6  1  0  0  0  0
M  END
>  <Charge>
0.0

>  <InChI>
1/C4H8O2/c1-3-6-4(2)5/h3H2,1-2H3

>  <Molecular Formula>
C_{4}H_{8}O_{2}

>  <Name>
ETHYL ACETATE

>  <SMILES>
CCOC(=O)C

>  <logK (1,4-DIOXANE)>
3.29

>  <logK (1-CHLOROBUTANE)>
3.172

>  <logK (1-HEXADECENE)>
2.36989525035

>  <logK (1-METHYL-2-PIPERIDINONE)>
3.05

>  <logK (1-OCTANOL)>
2.7

>  <logK (2,2,4-TRIMETHYLPENTANE)>
2.586

>  <logK (2-ETHOXYETHANOL)>
3.037

>  <logK (4-FORMYLMORPHOLINE)>
2.88

>  <logK (5,8,11,14-TETRAOXAOCTADECANE)>
2.92

>  <logK (BROMOBENZENE)>
3.24

>  <logK (BUTANONE)>
3.29

>  <logK (CARBON TETRACHLORIDE)>
3.11

>  <logK (CHLOROBENZENE)>
3.28

>  <logK (CHLOROFORM)>
3.98

>  <logK (CYCLOHEXANONE)>
3.177

>  <logK (DECANE)>
2.403

>  <logK (DICHLOROETHANE)>
3.7

>  <logK (DICHLOROMETHANE)>
3.832

>  <logK (DIETHYLENE GLYCOL DIBUTYL ETHER)>
2.923

>  <logK (DIMETHYLFORMAMIDE)>
3.18

>  <logK (ETHANOL)>
2.974

>  <logK (ETHYL ACETATE)>
3.3

>  <logK (FORMAMIDE)>
2.61

>  <logK (HEPTANE)>
2.59

>  <logK (HEXADECANE)>
2.376

>  <logK (HEXANE)>
2.64

>  <logK (ISOPROPANOL)>
2.86

>  <logK (N,N-DIBUTYLFORMAMID)>
2.9

>  <logK (N,N-DIMETHYLACETAMIDE)>
3.05

>  <logK (N-BUTANOL)>
2.91

>  <logK (N-METHYLACETAMIDE)>
2.96

>  <logK (OCTANE)>
2.49

>  <logK (P-XYLENE)>
3.083

>  <logK (PENTANOL)>
2.84

>  <logK (PHENYLAMINE)>
3.183

>  <logK (SULFOLANE)>
2.871

>  <logK (TETRAETHYLENE GLYCOL DIMETHYL ETHER)>
2.946

>  <logK (TETRAHYDROFURAN)>
3.34

>  <logK (TOLUENE)>
3.164

>  <logK (TRIBUTYL PHOSPHATE)>
2.89

>  <mean polarizability>
8.98

>  <dipole moment>
1.79704007907

>  <experimental polarizability source>
@Article{Bosque2002, Title = {Polarizabilities of Solvents from the Chemical Composition}, Author = {Bosque, Ramon and Sales, Joaquim}, Journal = {Journal of Chemical Information and Computer Sciences}, Year = {2002}, Note = {PMID: 12377003}, Number = {5}, Pages = {1154-1163}, Volume = {42}, Doi = {10.1021/ci025528x}, Url = {https://doi.org/10.1021/ci025528x}}

>  <Formula>
C4H8O2

$$$$
117
 OpenBabel08101817183D

 12 11  0  0  0  0  0  0  0  0999 V2000
   -1.1155   -0.8429    0.1244 C   0  0  0  0  0  0  0  0  0  0  0  0
   -0.0317    0.1150   -0.0694 N   0  0  0  0  0  0  0  0  0  0  0  0
    1.3100   -0.1360    0.4452 C   0  0  0  0  0  0  0  0  0  0  0  0
   -0.2505    1.2770   -0.7424 C   0  0  0  0  0  0  0  0  0  0  0  0
    0.6011    2.1340   -0.9493 O   0  0  0  0  0  0  0  0  0  0  0  0
   -0.7351   -1.7026    0.6844 H   0  0  0  0  0  0  0  0  0  0  0  0
   -1.9461   -0.4080    0.6993 H   0  0  0  0  0  0  0  0  0  0  0  0
   -1.5088   -1.2130   -0.8337 H   0  0  0  0  0  0  0  0  0  0  0  0
    1.3253   -1.1030    0.9574 H   0  0  0  0  0  0  0  0  0  0  0  0
    1.6109    0.6525    1.1490 H   0  0  0  0  0  0  0  0  0  0  0  0
    2.0448   -0.1461   -0.3718 H   0  0  0  0  0  0  0  0  0  0  0  0
   -1.3043    1.3731   -1.0933 H   0  0  0  0  0  0  0  0  0  0  0  0
  1  6  1  0  0  0  0
  1  7  1  0  0  0  0
  2  1  1  0  0  0  0
  2  3  1  0  0  0  0
  3  9  1  0  0  0  0
  3 10  1  0  0  0  0
  4  2  1  0  0  0  0
  5  4  2  0  0  0  0
  8  1  1  0  0  0  0
 11  3  1  0  0  0  0
 12  4  1  0  0  0  0
M  END
>  <Charge>
0.0

>  <InChI>
1/C3H7NO/c1-4(2)3-5/h3H,1-2H3

>  <Molecular Formula>
C_{3}H_{7}NO

>  <Name>
DIMETHYLFORMAMIDE

>  <SMILES>
CN(C)C=O

>  <logK (1,4-DIOXANE)>
4.52

>  <logK (1-OCTANOL)>
4.38

>  <logK (ACETONE)>
4.71

>  <logK (BUTANONE)>
4.7

>  <logK (DIMETHYLFORMAMIDE)>
4.72

>  <logK (ETHANOL)>
4.973

>  <logK (ETHYL ACETATE)>
4.47

>  <logK (TETRAHYDROFURAN)>
4.39

>  <mean polarizability>
7.84

>  <dipole moment>
4.17612723906

>  <Formula>
C3H7NO

$$$$
118
 OpenBabel08101817183D

 26 25  0  0  0  0  0  0  0  0999 V2000
    2.2400   -0.5490   -0.8739 C   0  0  0  0  0  0  0  0  0  0  0  0
    1.4167    0.2620    0.1351 C   0  0  0  0  0  0  0  0  0  0  0  0
    2.2776    0.6201    1.3528 C   0  0  0  0  0  0  0  0  0  0  0  0
    0.1271   -0.4806    0.5634 C   0  0  0  0  0  0  0  0  0  0  0  0
   -1.2042   -0.0645   -0.1140 C   0  0  0  0  0  0  0  0  0  0  0  0
   -1.1227   -0.1661   -1.6457 C   0  0  0  0  0  0  0  0  0  0  0  0
   -2.3050   -1.0135    0.3894 C   0  0  0  0  0  0  0  0  0  0  0  0
   -1.5742    1.3752    0.2826 C   0  0  0  0  0  0  0  0  0  0  0  0
    1.6551   -0.8152   -1.7639 H   0  0  0  0  0  0  0  0  0  0  0  0
    3.1256    0.0104   -1.2080 H   0  0  0  0  0  0  0  0  0  0  0  0
    2.5920   -1.4861   -0.4154 H   0  0  0  0  0  0  0  0  0  0  0  0
    1.1289    1.2094   -0.3513 H   0  0  0  0  0  0  0  0  0  0  0  0
    2.5800   -0.2877    1.8971 H   0  0  0  0  0  0  0  0  0  0  0  0
    3.1940    1.1498    1.0553 H   0  0  0  0  0  0  0  0  0  0  0  0
    1.7281    1.2621    2.0556 H   0  0  0  0  0  0  0  0  0  0  0  0
    0.2732   -1.5633    0.4069 H   0  0  0  0  0  0  0  0  0  0  0  0
   -0.0167   -0.3552    1.6496 H   0  0  0  0  0  0  0  0  0  0  0  0
   -2.0879    0.1019   -2.0998 H   0  0  0  0  0  0  0  0  0  0  0  0
   -0.8753   -1.1884   -1.9660 H   0  0  0  0  0  0  0  0  0  0  0  0
   -0.3650    0.5130   -2.0609 H   0  0  0  0  0  0  0  0  0  0  0  0
   -2.0865   -2.0548    0.1107 H   0  0  0  0  0  0  0  0  0  0  0  0
   -3.2827   -0.7482   -0.0387 H   0  0  0  0  0  0  0  0  0  0  0  0
   -2.3944   -0.9702    1.4848 H   0  0  0  0  0  0  0  0  0  0  0  0
   -1.6678    1.4711    1.3743 H   0  0  0  0  0  0  0  0  0  0  0  0
   -0.8207    2.1004   -0.0555 H   0  0  0  0  0  0  0  0  0  0  0  0
   -2.5354    1.6674   -0.1644 H   0  0  0  0  0  0  0  0  0  0  0  0
  1 11  1  0  0  0  0
  1  2  1  0  0  0  0
  2  4  1  0  0  0  0
  2  3  1  0  0  0  0
  3 13  1  0  0  0  0
  3 15  1  0  0  0  0
  4 17  1  0  0  0  0
  5  8  1  0  0  0  0
  5  7  1  0  0  0  0
  5  4  1  0  0  0  0
  6  5  1  0  0  0  0
  7 23  1  0  0  0  0
  8 24  1  0  0  0  0
  9  1  1  0  0  0  0
 10  1  1  0  0  0  0
 12  2  1  0  0  0  0
 14  3  1  0  0  0  0
 16  4  1  0  0  0  0
 18  6  1  0  0  0  0
 19  6  1  0  0  0  0
 20  6  1  0  0  0  0
 21  7  1  0  0  0  0
 22  7  1  0  0  0  0
 25  8  1  0  0  0  0
 26  8  1  0  0  0  0
M  END
>  <Charge>
0.0

>  <InChI>
1/C8H18/c1-7(2)6-8(3,4)5/h7H,6H2,1-5H3

>  <Molecular Formula>
C_{8}H_{18}

>  <Name>
2,2,4-TRIMETHYLPENTANE

>  <SMILES>
CC(C)CC(C)(C)C

>  <logK ((\xb1)-1,2-PROPANEDIOL)>
1.579

>  <logK (1-CHLOROBUTANE)>
3.354

>  <logK (1-PROPANOL)>
2.69

>  <logK (2,2,4-TRIMETHYLPENTANE)>
3.356

>  <logK (4-FORMYLMORPHOLINE)>
1.79

>  <logK (ACETIC ACID)>
2.268

>  <logK (BUTANONE)>
2.97

>  <logK (DECAN-1-OL)>
2.86

>  <logK (DIISOPROPYL ETHER)>
3.347

>  <logK (DIMETHYLFORMAMIDE)>
2.33

>  <logK (ETHYLBENZENE)>
3.19

>  <logK (HEXANOL)>
2.982

>  <logK (ISOPROPANOL)>
2.7

>  <logK (METHYL TERT-BUTYL ETHER)>
3.41

>  <logK (N-METHYLPYRROLIDONE)>
2.29

>  <logK (OCTANE)>
3.27

>  <logK (PENTANOL)>
2.85

>  <logK (PHENYLAMINE)>
2.059

>  <logK (SULFOLANE)>
1.706

>  <logK (TERT-BUTANOL)>
2.64

>  <logK (TETRAHYDROFURAN)>
3.41

>  <logK (TRIBUTYL PHOSPHATE)>
2.83

>  <Formula>
C8H18

>  <dipole moment>
0.115803329188

>  <mean polarizability>
15.53

$$$$
119
 OpenBabel08101817183D

 29 28  0  0  1  0  0  0  0  0999 V2000
   -2.9578    0.7110    1.1212 C   0  0  0  0  0  0  0  0  0  0  0  0
   -2.6415    0.5012   -0.3623 C   0  0  0  0  0  0  0  0  0  0  0  0
   -1.4563   -0.4364   -0.6764 C   0  0  2  0  0  0  0  0  0  0  0  0
   -1.7239   -1.8721   -0.2068 C   0  0  0  0  0  0  0  0  0  0  0  0
   -0.1251    0.1222   -0.1382 C   0  0  0  0  0  0  0  0  0  0  0  0
    1.1189   -0.5780   -0.6969 C   0  0  0  0  0  0  0  0  0  0  0  0
    2.4806    0.0047   -0.2608 C   0  0  0  0  0  0  0  0  0  0  0  0
    2.7085   -0.0999    1.2519 C   0  0  0  0  0  0  0  0  0  0  0  0
    2.6934    1.4417   -0.7512 C   0  0  0  0  0  0  0  0  0  0  0  0
   -3.8174    1.3846    1.2407 H   0  0  0  0  0  0  0  0  0  0  0  0
   -3.2108   -0.2320    1.6248 H   0  0  0  0  0  0  0  0  0  0  0  0
   -2.1134    1.1616    1.6606 H   0  0  0  0  0  0  0  0  0  0  0  0
   -3.5384    0.1057   -0.8667 H   0  0  0  0  0  0  0  0  0  0  0  0
   -2.4391    1.4803   -0.8267 H   0  0  0  0  0  0  0  0  0  0  0  0
   -1.3716   -0.4621   -1.7781 H   0  0  0  0  0  0  0  0  0  0  0  0
   -1.7423   -1.9412    0.8906 H   0  0  0  0  0  0  0  0  0  0  0  0
   -2.6924   -2.2343   -0.5808 H   0  0  0  0  0  0  0  0  0  0  0  0
   -0.9538   -2.5673   -0.5662 H   0  0  0  0  0  0  0  0  0  0  0  0
   -0.1248    0.0587    0.9617 H   0  0  0  0  0  0  0  0  0  0  0  0
   -0.0803    1.1956   -0.3849 H   0  0  0  0  0  0  0  0  0  0  0  0
    1.0991   -1.6426   -0.4136 H   0  0  0  0  0  0  0  0  0  0  0  0
    1.0697   -0.5550   -1.7995 H   0  0  0  0  0  0  0  0  0  0  0  0
    3.2475   -0.6215   -0.7491 H   0  0  0  0  0  0  0  0  0  0  0  0
    3.7288    0.2119    1.5167 H   0  0  0  0  0  0  0  0  0  0  0  0
    2.5695   -1.1305    1.6091 H   0  0  0  0  0  0  0  0  0  0  0  0
    2.0150    0.5451    1.8106 H   0  0  0  0  0  0  0  0  0  0  0  0
    2.5453    1.5211   -1.8379 H   0  0  0  0  0  0  0  0  0  0  0  0
    1.9996    2.1430   -0.2659 H   0  0  0  0  0  0  0  0  0  0  0  0
    3.7130    1.7849   -0.5259 H   0  0  0  0  0  0  0  0  0  0  0  0
  1 10  1  0  0  0  0
  1 11  1  0  0  0  0
  1 12  1  0  0  0  0
  2  1  1  0  0  0  0
  3 15  1  6  0  0  0
  3  2  1  0  0  0  0
  3  4  1  0  0  0  0
  3  5  1  0  0  0  0
  4 16  1  0  0  0  0
  5 19  1  0  0  0  0
  6 21  1  0  0  0  0
  6  7  1  0  0  0  0
  6  5  1  0  0  0  0
  7  8  1  0  0  0  0
  8 24  1  0  0  0  0
  8 25  1  0  0  0  0
  8 26  1  0  0  0  0
  9 29  1  0  0  0  0
  9 28  1  0  0  0  0
  9  7  1  0  0  0  0
 13  2  1  0  0  0  0
 14  2  1  0  0  0  0
 17  4  1  0  0  0  0
 18  4  1  0  0  0  0
 20  5  1  0  0  0  0
 22  6  1  0  0  0  0
 23  7  1  0  0  0  0
 27  9  1  0  0  0  0
M  END
>  <Charge>
0.0

>  <InChI>
1/C9H20/c1-5-9(4)7-6-8(2)3/h8-9H,5-7H2,1-4H3

>  <Molecular Formula>
C_{9}H_{20}

>  <Name>
2,5-DIMETHYLHEPTANE

>  <SMILES>
CCC(C)CCC(C)C

>  <logK (1-PROPANOL)>
3.4

>  <dipole moment>
0.187152875585

>  <mean polarizability>
17.28

$$$$
120
 OpenBabel08101817183D

  9  9  0  0  0  0  0  0  0  0999 V2000
   -0.1159    0.8555   -0.1134 C   0  0  0  0  0  0  0  0  0  0  0  0
    0.8043   -0.3234    0.0815 C   0  0  0  0  0  0  0  0  0  0  0  0
   -0.6885   -0.5321    0.0319 C   0  0  0  0  0  0  0  0  0  0  0  0
   -0.2406    1.5502    0.7154 H   0  0  0  0  0  0  0  0  0  0  0  0
   -0.1485    1.3225   -1.0963 H   0  0  0  0  0  0  0  0  0  0  0  0
    1.3044   -0.4291    1.0427 H   0  0  0  0  0  0  0  0  0  0  0  0
    1.3964   -0.6568   -0.7690 H   0  0  0  0  0  0  0  0  0  0  0  0
   -1.1099   -1.0073   -0.8523 H   0  0  0  0  0  0  0  0  0  0  0  0
   -1.2019   -0.7796    0.9594 H   0  0  0  0  0  0  0  0  0  0  0  0
  1  3  1  0  0  0  0
  1  2  1  0  0  0  0
  1  4  1  0  0  0  0
  2  6  1  0  0  0  0
  3  2  1  0  0  0  0
  3  9  1  0  0  0  0
  5  1  1  0  0  0  0
  7  2  1  0  0  0  0
  8  3  1  0  0  0  0
M  END
>  <Charge>
0.0

>  <InChI>
1/C3H6/c1-2-3-1/h1-3H2

>  <Molecular Formula>
C_{3}H_{6}

>  <Name>
CYCLOPROPANE

>  <SMILES>
C1CC1

>  <logK (1,4-DIOXANE)>
1.42

>  <logK (1-PROPANOL)>
1.15

>  <logK (ACETIC ACID)>
1.227

>  <logK (HEXADECANE)>
1.314

>  <logK (HEXANE)>
1.45

>  <logK (ISOPROPANOL)>
1.16

>  <logK (N-BUTANOL)>
1.26

>  <mean polarizability>
5.44

>  <dipole moment>
7.34547291755e-05

$$$$
121
 OpenBabel08101817183D

 21 21  0  0  0  0  0  0  0  0999 V2000
    0.4049    1.4762   -0.5577 C   0  0  0  0  0  0  0  0  0  0  0  0
    1.4317    0.6798    0.2633 C   0  0  0  0  0  0  0  0  0  0  0  0
    1.5153   -0.8024   -0.1308 C   0  0  0  0  0  0  0  0  0  0  0  0
    0.3109   -1.6739    0.2418 C   0  0  0  0  0  0  0  0  0  0  0  0
   -1.0617   -1.1816   -0.2408 C   0  0  0  0  0  0  0  0  0  0  0  0
   -1.5521    0.0797    0.4880 C   0  0  0  0  0  0  0  0  0  0  0  0
   -1.0526    1.4274   -0.0640 C   0  0  0  0  0  0  0  0  0  0  0  0
    0.7097    2.5328   -0.6038 H   0  0  0  0  0  0  0  0  0  0  0  0
    0.4525    1.1129   -1.5974 H   0  0  0  0  0  0  0  0  0  0  0  0
    2.4259    1.1265    0.1086 H   0  0  0  0  0  0  0  0  0  0  0  0
    1.2233    0.7779    1.3422 H   0  0  0  0  0  0  0  0  0  0  0  0
    1.6721   -0.8535   -1.2223 H   0  0  0  0  0  0  0  0  0  0  0  0
    2.4150   -1.2471    0.3236 H   0  0  0  0  0  0  0  0  0  0  0  0
    0.4880   -2.6893   -0.1473 H   0  0  0  0  0  0  0  0  0  0  0  0
    0.2665   -1.7754    1.3401 H   0  0  0  0  0  0  0  0  0  0  0  0
   -1.7893   -1.9900   -0.0697 H   0  0  0  0  0  0  0  0  0  0  0  0
   -1.0475   -1.0167   -1.3315 H   0  0  0  0  0  0  0  0  0  0  0  0
   -1.2640   -0.0122    1.5481 H   0  0  0  0  0  0  0  0  0  0  0  0
   -2.6526    0.1019    0.4859 H   0  0  0  0  0  0  0  0  0  0  0  0
   -1.1935    2.1874    0.7209 H   0  0  0  0  0  0  0  0  0  0  0  0
   -1.7025    1.7396   -0.8969 H   0  0  0  0  0  0  0  0  0  0  0  0
  1  7  1  0  0  0  0
  1  2  1  0  0  0  0
  2 11  1  0  0  0  0
  3  4  1  0  0  0  0
  3  2  1  0  0  0  0
  3 13  1  0  0  0  0
  4 15  1  0  0  0  0
  5 16  1  0  0  0  0
  5  4  1  0  0  0  0
  5  6  1  0  0  0  0
  6 18  1  0  0  0  0
  7  6  1  0  0  0  0
  7 20  1  0  0  0  0
  8  1  1  0  0  0  0
  9  1  1  0  0  0  0
 10  2  1  0  0  0  0
 12  3  1  0  0  0  0
 14  4  1  0  0  0  0
 17  5  1  0  0  0  0
 19  6  1  0  0  0  0
 21  7  1  0  0  0  0
M  END
>  <Charge>
0.0

>  <InChI>
1/C7H14/c1-2-4-6-7-5-3-1/h1-7H2

>  <Molecular Formula>
C_{7}H_{14}

>  <Name>
CYCLOHEPTANE

>  <SMILES>
C1CCCCCC1

>  <logK (1-PROPANOL)>
3.13

>  <logK (CARBON TETRACHLORIDE)>
3.888

>  <logK (DIMETHYLFORMAMIDE)>
2.78

>  <logK (HEPTANE)>
3.698

>  <logK (ISOPROPANOL)>
3.11

>  <logK (SULFOLANE)>
2.302

>  <mean polarizability>
12.68

>  <dipole moment>
0.012935673357

$$$$
122
 OpenBabel08101817183D

 12 11  0  0  0  0  0  0  0  0999 V2000
    1.5703    0.4103   -0.2105 C   0  0  0  0  0  0  0  0  0  0  0  0
    0.3809   -0.0762    0.6296 C   0  0  0  0  0  0  0  0  0  0  0  0
   -0.7578   -0.5734   -0.2094 C   0  0  0  0  0  0  0  0  0  0  0  0
   -1.9961   -0.0739   -0.2092 C   0  0  0  0  0  0  0  0  0  0  0  0
    1.9406   -0.3855   -0.8720 H   0  0  0  0  0  0  0  0  0  0  0  0
    2.4039    0.7274    0.4303 H   0  0  0  0  0  0  0  0  0  0  0  0
    1.2825    1.2609   -0.8427 H   0  0  0  0  0  0  0  0  0  0  0  0
    0.7243   -0.8918    1.2889 H   0  0  0  0  0  0  0  0  0  0  0  0
    0.0271    0.7312    1.2883 H   0  0  0  0  0  0  0  0  0  0  0  0
   -0.5256   -1.4091   -0.8795 H   0  0  0  0  0  0  0  0  0  0  0  0
   -2.2737    0.7608    0.4380 H   0  0  0  0  0  0  0  0  0  0  0  0
   -2.7767   -0.4808   -0.8519 H   0  0  0  0  0  0  0  0  0  0  0  0
  1  6  1  0  0  0  0
  1  2  1  0  0  0  0
  2  9  1  0  0  0  0
  2  8  1  0  0  0  0
  3  4  2  0  0  0  0
  3  2  1  0  0  0  0
  4 11  1  0  0  0  0
  5  1  1  0  0  0  0
  7  1  1  0  0  0  0
 10  3  1  0  0  0  0
 12  4  1  0  0  0  0
M  END
>  <Charge>
0.0

>  <InChI>
1/C4H8/c1-3-4-2/h3H,1,4H2,2H3

>  <Molecular Formula>
C_{4}H_{8}

>  <Name>
1-BUTENE

>  <SMILES>
CCC=C

>  <logK ((\xb1)-2-BUTANOL)>
1.46

>  <logK (1-PROPANOL)>
1.47

>  <logK (2,2,4-TRIMETHYLPENTANE)>
1.656

>  <logK (2-METHYLBUTAN-1-OL)>
1.45

>  <logK (2-PENTANOL)>
1.47

>  <logK (3-METHYLBUTAN-1-OL)>
1.462

>  <logK (ALLYL ALCOHOL)>
1.38

>  <logK (CARBON TETRACHLORIDE)>
1.83

>  <logK (DECANE)>
1.773

>  <logK (DIMETHYLFORMAMIDE)>
1.3

>  <logK (HEPTANE)>
1.817

>  <logK (HEXADECANE)>
1.491

>  <logK (HEXANE)>
1.826

>  <logK (ISOBUTANOL)>
1.45

>  <logK (ISOPROPANOL)>
1.45

>  <logK (M-XYLENE)>
1.688

>  <logK (N-BUTANOL)>
1.47

>  <logK (NONANE)>
1.781

>  <logK (O-XYLENE)>
1.695

>  <logK (OCTANE)>
1.796

>  <logK (P-XYLENE)>
1.71

>  <logK (PENTAN-3-OL)>
1.47

>  <logK (PENTANE)>
1.85

>  <logK (PENTANOL)>
1.47

>  <logK (SULFOLANE)>
0.903

>  <logK (TERT-AMYL ALCOHOL)>
1.54

>  <logK (TERT-BUTANOL)>
1.49

>  <logK (TETRAHYDROPYRAN)>
1.83

>  <logK (TOLUENE)>
1.765

>  <mean polarizability>
7.96

>  <dipole moment>
0.446196098374

$$$$
123
 OpenBabel08101817183D

 12 11  0  0  0  0  0  0  0  0999 V2000
   -0.6871   -1.2093   -0.2336 C   0  0  0  0  0  0  0  0  0  0  0  0
   -0.1293    0.1565    0.0515 C   0  0  0  0  0  0  0  0  0  0  0  0
   -0.9155    1.1879    0.3846 C   0  0  0  0  0  0  0  0  0  0  0  0
    1.3746    0.3031   -0.0588 C   0  0  0  0  0  0  0  0  0  0  0  0
   -0.2569   -1.9585    0.4501 H   0  0  0  0  0  0  0  0  0  0  0  0
   -1.7790   -1.2362   -0.1340 H   0  0  0  0  0  0  0  0  0  0  0  0
   -0.4227   -1.5353   -1.2523 H   0  0  0  0  0  0  0  0  0  0  0  0
   -0.5047    2.1776    0.5906 H   0  0  0  0  0  0  0  0  0  0  0  0
   -1.9975    1.0775    0.4627 H   0  0  0  0  0  0  0  0  0  0  0  0
    1.6488    1.0522   -0.8146 H   0  0  0  0  0  0  0  0  0  0  0  0
    1.8541   -0.6427   -0.3407 H   0  0  0  0  0  0  0  0  0  0  0  0
    1.8154    0.6273    0.8943 H   0  0  0  0  0  0  0  0  0  0  0  0
  1  6  1  0  0  0  0
  1  2  1  0  0  0  0
  1  5  1  0  0  0  0
  2  3  2  0  0  0  0
  3  9  1  0  0  0  0
  3  8  1  0  0  0  0
  4  2  1  0  0  0  0
  4 12  1  0  0  0  0
  7  1  1  0  0  0  0
 10  4  1  0  0  0  0
 11  4  1  0  0  0  0
M  END
>  <Charge>
0.0

>  <InChI>
1/C4H8/c1-4(2)3/h1H2,2-3H3

>  <Molecular Formula>
C_{4}H_{8}

>  <Name>
ISOBUTENE

>  <SMILES>
CC(=C)C

>  <logK ((\xb1)-2-BUTANOL)>
1.46

>  <logK (1-PROPANOL)>
1.47

>  <logK (2-METHYLBUTAN-1-OL)>
1.45

>  <logK (2-PENTANOL)>
1.47

>  <logK (3-METHYLBUTAN-1-OL)>
1.462

>  <logK (ACETIC ACID)>
1.537

>  <logK (ACETONE)>
1.74

>  <logK (ALLYL ALCOHOL)>
1.39

>  <logK (CARBON TETRACHLORIDE)>
1.99

>  <logK (DECANE)>
1.729

>  <logK (DIMETHYLFORMAMIDE)>
1.45

>  <logK (ETHYL ACETATE)>
1.87

>  <logK (HEPTANE)>
1.789

>  <logK (HEXANE)>
1.78

>  <logK (ISOBUTANOL)>
1.45

>  <logK (ISOPROPANOL)>
1.45

>  <logK (M-XYLENE)>
1.709

>  <logK (N-BUTANOL)>
1.59

>  <logK (N-METHYLPYRROLIDONE)>
1.32

>  <logK (NONANE)>
1.751

>  <logK (O-XYLENE)>
1.692

>  <logK (OCTANE)>
1.77

>  <logK (P-XYLENE)>
1.7

>  <logK (PENTAN-3-OL)>
1.47

>  <logK (PENTANE)>
1.82

>  <logK (PENTANOL)>
1.47

>  <logK (SULFOLANE)>
0.93

>  <logK (TERT-AMYL ALCOHOL)>
1.53

>  <logK (TERT-BUTANOL)>
1.49

>  <logK (TETRAHYDROPYRAN)>
1.82

>  <logK (TOLUENE)>
1.752

>  <mean polarizability>
7.88

>  <dipole moment>
0.595338404439

$$$$
124
 OpenBabel08101817183D

  5  4  0  0  0  0  0  0  0  0999 V2000
   -0.0657    0.0100    0.0037 C   0  0  0  0  0  0  0  0  0  0  0  0
    1.3131   -0.1992   -0.0730 F   0  0  0  0  0  0  0  0  0  0  0  0
   -0.3823   -0.0925    1.0503 H   0  0  0  0  0  0  0  0  0  0  0  0
   -0.2919    1.0207   -0.3619 H   0  0  0  0  0  0  0  0  0  0  0  0
   -0.5731   -0.7389   -0.6192 H   0  0  0  0  0  0  0  0  0  0  0  0
  1  3  1  0  0  0  0
  2  1  1  0  0  0  0
  4  1  1  0  0  0  0
  5  1  1  0  0  0  0
M  END
>  <Charge>
0.0

>  <InChI>
1/CH3F/c1-2/h1H3

>  <Molecular Formula>
CH_{3}F

>  <Name>
FLUROMETHANE

>  <SMILES>
CF

>  <logK (1-PROPANOL)>
-0.02

>  <mean polarizability>
2.56

>  <dipole moment>
1.77651441874

$$$$
125
 OpenBabel08101817183D

 14 13  0  0  0  0  0  0  0  0999 V2000
   -1.9697   -0.1540    0.0225 C   0  0  0  0  0  0  0  0  0  0  0  0
   -0.5469   -0.1363   -0.5351 C   0  0  0  0  0  0  0  0  0  0  0  0
    0.5096    0.0661    0.5516 C   0  0  0  0  0  0  0  0  0  0  0  0
    1.9435    0.0670    0.0511 C   0  0  0  0  0  0  0  0  0  0  0  0
    2.3016    1.4851   -1.0183 Cl  0  0  0  0  0  0  0  0  0  0  0  0
   -2.7101   -0.3056   -0.7740 H   0  0  0  0  0  0  0  0  0  0  0  0
   -2.2107    0.7942    0.5240 H   0  0  0  0  0  0  0  0  0  0  0  0
   -2.1023   -0.9604    0.7585 H   0  0  0  0  0  0  0  0  0  0  0  0
   -0.4492    0.6631   -1.2842 H   0  0  0  0  0  0  0  0  0  0  0  0
   -0.3422   -1.0814   -1.0645 H   0  0  0  0  0  0  0  0  0  0  0  0
    0.4323   -0.7476    1.2947 H   0  0  0  0  0  0  0  0  0  0  0  0
    0.3161    1.0030    1.0972 H   0  0  0  0  0  0  0  0  0  0  0  0
    2.6615    0.1307    0.8757 H   0  0  0  0  0  0  0  0  0  0  0  0
    2.1665   -0.8239   -0.5488 H   0  0  0  0  0  0  0  0  0  0  0  0
  1  7  1  0  0  0  0
  1  8  1  0  0  0  0
  2  1  1  0  0  0  0
  2  3  1  0  0  0  0
  3 12  1  0  0  0  0
  3 11  1  0  0  0  0
  4  3  1  0  0  0  0
  4 13  1  0  0  0  0
  5  4  1  0  0  0  0
  6  1  1  0  0  0  0
  9  2  1  0  0  0  0
 10  2  1  0  0  0  0
 14  4  1  0  0  0  0
M  END
>  <Charge>
0.0

>  <InChI>
1/C4H9Cl/c1-2-3-4-5/h2-4H2,1H3

>  <Molecular Formula>
C_{4}H_{9}Cl

>  <Name>
1-CHLOROBUTANE

>  <SMILES>
CCCCCl

>  <logK ((\xb1)-2-BUTANOL)>
2.73

>  <logK (1-CHLOROBUTANE)>
3.243

>  <logK (1-HEXADECENE)>
2.71224657452

>  <logK (1-METHOXYBUTANE)>
3.204

>  <logK (1-OCTANOL)>
2.72

>  <logK (1-PROPANOL)>
2.63

>  <logK (2,2,4-TRIMETHYLPENTANE)>
2.865

>  <logK (5,8,11,14-TETRAOXAOCTADECANE)>
2.96

>  <logK (ACETONE)>
3.12

>  <logK (CARBON TETRACHLORIDE)>
3.16

>  <logK (CHLOROBENZENE)>
3.19

>  <logK (DECAN-1-OL)>
2.69

>  <logK (DIBUTYL ETHER)>
3.01

>  <logK (DICHLOROETHANE)>
3.25

>  <logK (DIETHYL ETHER)>
3.21

>  <logK (DIETHYLENE GLYCOL DIBUTYL ETHER)>
2.981

>  <logK (DIISOPROPYL ETHER)>
3.093

>  <logK (ETHYL ACETATE)>
3.16

>  <logK (HEPTANE)>
2.906

>  <logK (HEXADECANE)>
2.722

>  <logK (HEXANE)>
2.95

>  <logK (ISOBUTANOL)>
2.73

>  <logK (PENTANE)>
2.99

>  <logK (PHENYLAMINE)>
2.804

>  <logK (PROPYL ETHER)>
3.099

>  <logK (PYRIDINE)>
3.171

>  <logK (TERT-BUTANOL)>
2.71

>  <logK (TETRAETHYLENE GLYCOL DIMETHYL ETHER)>
2.831

>  <logK (TOLUENE)>
3.187

>  <logK (TRIBUTYL PHOSPHATE)>
2.97

>  <mean polarizability>
10.07

>  <dipole moment>
2.03064026419

>  <Formula>
C4H9Cl

$$$$
126
 OpenBabel08101817183D

 14 13  0  0  0  0  0  0  0  0999 V2000
    1.4300   -0.0572   -0.3018 C   0  0  0  0  0  0  0  0  0  0  0  0
    0.0432    0.0741    0.3191 C   0  0  0  0  0  0  0  0  0  0  0  0
   -0.7488    1.2192   -0.3034 C   0  0  0  0  0  0  0  0  0  0  0  0
   -0.7272   -1.2410    0.2651 C   0  0  0  0  0  0  0  0  0  0  0  0
    0.2849    0.4886    2.1040 Cl  0  0  0  0  0  0  0  0  0  0  0  0
    1.3291   -0.3046   -1.3693 H   0  0  0  0  0  0  0  0  0  0  0  0
    2.0060   -0.8537    0.1845 H   0  0  0  0  0  0  0  0  0  0  0  0
    1.9908    0.8813   -0.2162 H   0  0  0  0  0  0  0  0  0  0  0  0
   -1.7257    1.3326    0.1819 H   0  0  0  0  0  0  0  0  0  0  0  0
   -0.2044    2.1674   -0.2179 H   0  0  0  0  0  0  0  0  0  0  0  0
   -0.9143    1.0095   -1.3709 H   0  0  0  0  0  0  0  0  0  0  0  0
   -0.8922   -1.5235   -0.7856 H   0  0  0  0  0  0  0  0  0  0  0  0
   -0.1674   -2.0464    0.7556 H   0  0  0  0  0  0  0  0  0  0  0  0
   -1.7039   -1.1463    0.7548 H   0  0  0  0  0  0  0  0  0  0  0  0
  1  8  1  0  0  0  0
  1  7  1  0  0  0  0
  1  2  1  0  0  0  0
  2  5  1  0  0  0  0
  3 10  1  0  0  0  0
  3  9  1  0  0  0  0
  3  2  1  0  0  0  0
  4  2  1  0  0  0  0
  4 14  1  0  0  0  0
  4 13  1  0  0  0  0
  6  1  1  0  0  0  0
 11  3  1  0  0  0  0
 12  4  1  0  0  0  0
M  END
>  <Charge>
0.0

>  <InChI>
1/C4H9Cl/c1-4(2,3)5/h1-3H3

>  <Molecular Formula>
C_{4}H_{9}Cl

>  <Name>
TERT-BUTYL CHLORIDE

>  <SMILES>
CC(C)(C)Cl

>  <logK ((\xb1)-1,2-PROPANEDIOL)>
1.685

>  <logK (1,4-DIOXANE)>
2.46

>  <logK (1-HEXADECENE)>
2.24811284027

>  <logK (1-PROPANOL)>
2.06

>  <logK (2,2,4-TRIMETHYLPENTANE)>
2.415

>  <logK (2-BUTOXYETHANOL)>
2.42

>  <logK (2-ETHOXYETHANOL)>
2.434

>  <logK (ACETIC ACID)>
2.243

>  <logK (ACETONE)>
2.54

>  <logK (BENZONITRILE)>
2.307

>  <logK (BROMOBENZENE)>
2.52

>  <logK (BUTANONE)>
2.68

>  <logK (CARBON TETRACHLORIDE)>
2.68

>  <logK (CHLOROBENZENE)>
2.61

>  <logK (CYCLOHEXANONE)>
2.666

>  <logK (DICHLOROETHANE)>
2.62

>  <logK (DIETHYL ETHER)>
2.48

>  <logK (DIISOPROPYL ETHER)>
2.598

>  <logK (DIMETHYLFORMAMIDE)>
2.31

>  <logK (ETHYL ACETATE)>
2.61

>  <logK (HEPTANE)>
2.48

>  <logK (HEXADECANE)>
2.217

>  <logK (HEXANE)>
2.51

>  <logK (ISOPROPANOL)>
2.05

>  <logK (METHOXYETHANOL)>
2.426

>  <logK (N,N-DIMETHYLACETAMIDE)>
2.27

>  <logK (N-BUTANOL)>
2.17

>  <logK (N-METHYLPYRROLIDONE)>
2.18

>  <logK (P-XYLENE)>
2.626

>  <logK (PHENYLAMINE)>
2.146

>  <logK (PROPYLENE CARBONATE)>
2.03

>  <logK (TERT-BUTANOL)>
2.16

>  <logK (TETRAHYDROFURAN)>
2.5

>  <logK (TOLUENE)>
2.689

>  <mean polarizability>
10.12

>  <dipole moment>
2.24874725819

$$$$
127
 OpenBabel08101817183D

 14 13  0  0  0  0  0  0  0  0999 V2000
   -0.3464    1.3902    0.3001 C   0  0  0  0  0  0  0  0  0  0  0  0
    0.0378    0.0469   -0.3052 C   0  0  0  0  0  0  0  0  0  0  0  0
    1.3704   -0.4611    0.2283 C   0  0  0  0  0  0  0  0  0  0  0  0
   -1.0703   -0.9865   -0.1548 C   0  0  0  0  0  0  0  0  0  0  0  0
    0.2840    0.3524   -2.2929 Br  0  0  0  0  0  0  0  0  0  0  0  0
   -0.4897    1.2646    1.3852 H   0  0  0  0  0  0  0  0  0  0  0  0
   -1.2821    1.7691   -0.1277 H   0  0  0  0  0  0  0  0  0  0  0  0
    0.4386    2.1393    0.1426 H   0  0  0  0  0  0  0  0  0  0  0  0
    2.1704    0.2717    0.0701 H   0  0  0  0  0  0  0  0  0  0  0  0
    1.2762   -0.6398    1.3113 H   0  0  0  0  0  0  0  0  0  0  0  0
    1.6600   -1.4039   -0.2507 H   0  0  0  0  0  0  0  0  0  0  0  0
   -2.0125   -0.6287   -0.5865 H   0  0  0  0  0  0  0  0  0  0  0  0
   -0.8022   -1.9339   -0.6372 H   0  0  0  0  0  0  0  0  0  0  0  0
   -1.2343   -1.1802    0.9173 H   0  0  0  0  0  0  0  0  0  0  0  0
  1  6  1  0  0  0  0
  2  4  1  0  0  0  0
  2  3  1  0  0  0  0
  2  1  1  0  0  0  0
  3 10  1  0  0  0  0
  4 14  1  0  0  0  0
  5  2  1  0  0  0  0
  7  1  1  0  0  0  0
  8  1  1  0  0  0  0
  9  3  1  0  0  0  0
 11  3  1  0  0  0  0
 12  4  1  0  0  0  0
 13  4  1  0  0  0  0
M  END
>  <Charge>
0.0

>  <InChI>
1/C4H9Br/c1-4(2,3)5/h1-3H3

>  <Molecular Formula>
C_{4}H_{9}Br

>  <Name>
TERT-BUTYL BROMIDE

>  <SMILES>
CC(C)(C)Br

>  <logK (1,4-DIOXANE)>
2.79

>  <logK (1-HEXADECENE)>
2.60537373056

>  <logK (1-PROPANOL)>
2.34

>  <logK (ACETIC ACID)>
2.513

>  <logK (ACETONE)>
2.83

>  <logK (BENZONITRILE)>
2.671

>  <logK (BROMOBENZENE)>
2.85

>  <logK (CARBON TETRACHLORIDE)>
3.03

>  <logK (CHLOROBENZENE)>
2.88

>  <logK (DICHLOROETHANE)>
2.95

>  <logK (DIETHYL ETHER)>
2.82

>  <logK (DIMETHYLFORMAMIDE)>
2.63

>  <logK (ETHYL ACETATE)>
2.97

>  <logK (HEXADECANE)>
2.616

>  <logK (HEXANE)>
2.75

>  <logK (ISOPROPANOL)>
2.37

>  <logK (N,N-DIMETHYLACETAMIDE)>
2.58

>  <logK (N-BUTANOL)>
2.42

>  <logK (N-METHYLPYRROLIDONE)>
2.52

>  <logK (PROPYLENE CARBONATE)>
2.43

>  <logK (TERT-BUTANOL)>
2.46

>  <logK (TETRAHYDROFURAN)>
2.84

>  <mean polarizability>
11.03

>  <dipole moment>
2.3674517561

$$$$
128
 OpenBabel08101817183D

  8  7  0  0  0  0  0  0  0  0999 V2000
    0.7823    0.1143   -0.0599 C   0  0  0  0  0  0  0  0  0  0  0  0
   -0.7711   -0.1827   -0.0263 C   0  0  0  0  0  0  0  0  0  0  0  0
   -0.9499   -1.4484   -0.4828 F   0  0  0  0  0  0  0  0  0  0  0  0
   -1.4201   -0.0646    1.6180 Cl  0  0  0  0  0  0  0  0  0  0  0  0
   -1.6205    0.9308   -1.1212 Cl  0  0  0  0  0  0  0  0  0  0  0  0
    1.1884   -0.0071   -1.3493 F   0  0  0  0  0  0  0  0  0  0  0  0
    1.6474   -1.0956    0.9139 Cl  0  0  0  0  0  0  0  0  0  0  0  0
    1.1436    1.7533    0.5078 Cl  0  0  0  0  0  0  0  0  0  0  0  0
  1  2  1  0  0  0  0
  1  8  1  0  0  0  0
  1  7  1  0  0  0  0
  2  4  1  0  0  0  0
  3  2  1  0  0  0  0
  5  2  1  0  0  0  0
  6  1  1  0  0  0  0
M  END
>  <Charge>
0.0

>  <InChI>
1/C2Cl4F2/c3-1(4,7)2(5,6)8

>  <Molecular Formula>
C_{2}Cl_{4}F_{2}

>  <Name>
DAIFLON S 2

>  <SMILES>
C(C(F)(Cl)Cl)(F)(Cl)Cl

>  <logK (1,4-DIOXANE)>
3.27

>  <logK (1-PROPANOL)>
2.67

>  <logK (ACETONE)>
3.26

>  <logK (ETHYL ACETATE)>
3.39

>  <logK (HEPTANE)>
2.92

>  <logK (HEXANE)>
3.25

>  <logK (METHYL TERT-BUTYL ETHER)>
3.43

>  <logK (N-BUTANOL)>
2.71

>  <logK (TETRAHYDROFURAN)>
3.53

>  <mean polarizability>
12.6

>  <dipole moment>
0.666174470102

$$$$
129
 OpenBabel08101817183D

 15 14  0  0  0  0  0  0  0  0999 V2000
    1.7273    0.9288   -0.3267 C   0  0  0  0  0  0  0  0  0  0  0  0
    0.8399   -0.1663   -0.8766 C   0  0  0  0  0  0  0  0  0  0  0  0
    0.6220   -0.2895   -2.0674 O   0  0  0  0  0  0  0  0  0  0  0  0
    0.2245   -1.1444    0.1306 C   0  0  0  0  0  0  0  0  0  0  0  0
   -1.2738   -0.8990    0.3815 C   0  0  0  0  0  0  0  0  0  0  0  0
   -2.0808   -1.7957    0.2428 O   0  0  0  0  0  0  0  0  0  0  0  0
   -1.6804    0.4927    0.8131 C   0  0  0  0  0  0  0  0  0  0  0  0
    2.0016    1.6328   -1.1184 H   0  0  0  0  0  0  0  0  0  0  0  0
    1.2374    1.4586    0.5029 H   0  0  0  0  0  0  0  0  0  0  0  0
    2.6399    0.4743    0.0903 H   0  0  0  0  0  0  0  0  0  0  0  0
    0.3217   -2.1628   -0.2608 H   0  0  0  0  0  0  0  0  0  0  0  0
    0.7418   -1.0705    1.0998 H   0  0  0  0  0  0  0  0  0  0  0  0
   -2.7458    0.5108    1.0606 H   0  0  0  0  0  0  0  0  0  0  0  0
   -1.0883    0.8261    1.6774 H   0  0  0  0  0  0  0  0  0  0  0  0
   -1.4869    1.2045   -0.0037 H   0  0  0  0  0  0  0  0  0  0  0  0
  1 10  1  0  0  0  0
  1  9  1  0  0  0  0
  2  1  1  0  0  0  0
  2  4  1  0  0  0  0
  3  2  2  0  0  0  0
  4  5  1  0  0  0  0
  4 12  1  0  0  0  0
  5  7  1  0  0  0  0
  6  5  2  0  0  0  0
  7 13  1  0  0  0  0
  7 14  1  0  0  0  0
  8  1  1  0  0  0  0
 11  4  1  0  0  0  0
 15  7  1  0  0  0  0
M  END
>  <Charge>
0.0

>  <InChI>
1S/C5H8O2/c1-4(6)3-5(2)7/h3H2,1-2H3

>  <Molecular Formula>
C_{5}H_{8}O_{2}

>  <Name>
2,4-PENTANDIONE

>  <SMILES>
CC(=O)CC(=O)C

>  <logK (1-PROPANOL)>
3.69

>  <mean polarizability>
10.59

>  <dipole moment>
4.5251141789

$$$$
130
 OpenBabel08101817183D

 12 11  0  0  0  0  0  0  0  0999 V2000
    2.3225    0.2829    0.0415 C   0  0  0  0  0  0  0  0  0  0  0  0
    1.0412    0.7119   -0.4589 O   0  0  0  0  0  0  0  0  0  0  0  0
    0.0005   -0.0076    0.0061 C   0  0  0  0  0  0  0  0  0  0  0  0
    0.0600   -0.9432    0.7767 O   0  0  0  0  0  0  0  0  0  0  0  0
   -1.1186    0.5050   -0.5433 O   0  0  0  0  0  0  0  0  0  0  0  0
   -2.3302   -0.1627   -0.1404 C   0  0  0  0  0  0  0  0  0  0  0  0
    2.5208   -0.7572   -0.2447 H   0  0  0  0  0  0  0  0  0  0  0  0
    3.0513    0.9542   -0.4211 H   0  0  0  0  0  0  0  0  0  0  0  0
    2.3593    0.3685    1.1344 H   0  0  0  0  0  0  0  0  0  0  0  0
   -2.4667   -0.0939    0.9458 H   0  0  0  0  0  0  0  0  0  0  0  0
   -2.3051   -1.2195   -0.4334 H   0  0  0  0  0  0  0  0  0  0  0  0
   -3.1350    0.3617   -0.6627 H   0  0  0  0  0  0  0  0  0  0  0  0
  1  9  1  0  0  0  0
  2  3  1  0  0  0  0
  2  1  1  0  0  0  0
  3  4  2  0  0  0  0
  5  6  1  0  0  0  0
  5  3  1  0  0  0  0
  6 10  1  0  0  0  0
  7  1  1  0  0  0  0
  8  1  1  0  0  0  0
 11  6  1  0  0  0  0
 12  6  1  0  0  0  0
M  END
>  <Charge>
0.0

>  <InChI>
1/C3H6O3/c1-5-3(4)6-2/h1-2H3

>  <Molecular Formula>
C_{3}H_{6}O_{3}

>  <Name>
DIMETHYL CARBONATE

>  <SMILES>
COC(=O)OC

>  <logK (1-PROPANOL)>
2.73

>  <logK (CARBON TETRACHLORIDE)>
3.119

>  <logK (DICHLOROETHANE)>
3.71

>  <logK (METHYL TERT-BUTYL ETHER)>
3.11

>  <logK (METHYLCYCLOHEXANE)>
2.65

>  <mean polarizability>
7.76

>  <dipole moment>
0.429577730506

$$$$
131
 OpenBabel08101817183D

 33 32  0  0  0  0  0  0  0  0999 V2000
    5.4376    0.3504    0.6422 C   0  0  0  0  0  0  0  0  0  0  0  0
    3.9261    0.5087    0.8075 C   0  0  0  0  0  0  0  0  0  0  0  0
    3.1315   -0.5796    0.0791 C   0  0  0  0  0  0  0  0  0  0  0  0
    1.6097   -0.5000    0.2575 C   0  0  0  0  0  0  0  0  0  0  0  0
    0.9577    0.7205   -0.4013 C   0  0  0  0  0  0  0  0  0  0  0  0
   -0.5619    0.8125   -0.2090 C   0  0  0  0  0  0  0  0  0  0  0  0
   -1.3623   -0.2904   -0.9111 C   0  0  0  0  0  0  0  0  0  0  0  0
   -2.8826   -0.0960   -0.8634 C   0  0  0  0  0  0  0  0  0  0  0  0
   -3.4939   -0.1993    0.5363 C   0  0  0  0  0  0  0  0  0  0  0  0
   -5.0177   -0.0942    0.5477 C   0  0  0  0  0  0  0  0  0  0  0  0
   -5.6738   -1.1375   -0.1836 O   0  0  0  0  0  0  0  0  0  0  0  0
    5.9891    1.1345    1.1785 H   0  0  0  0  0  0  0  0  0  0  0  0
    5.7797   -0.6212    1.0273 H   0  0  0  0  0  0  0  0  0  0  0  0
    5.7282    0.4046   -0.4171 H   0  0  0  0  0  0  0  0  0  0  0  0
    3.6667    0.4852    1.8792 H   0  0  0  0  0  0  0  0  0  0  0  0
    3.6241    1.5028    0.4437 H   0  0  0  0  0  0  0  0  0  0  0  0
    3.4811   -1.5633    0.4340 H   0  0  0  0  0  0  0  0  0  0  0  0
    3.3733   -0.5454   -0.9975 H   0  0  0  0  0  0  0  0  0  0  0  0
    1.3699   -0.4997    1.3355 H   0  0  0  0  0  0  0  0  0  0  0  0
    1.1616   -1.4182   -0.1521 H   0  0  0  0  0  0  0  0  0  0  0  0
    1.4152    1.6389   -0.0024 H   0  0  0  0  0  0  0  0  0  0  0  0
    1.1863    0.7111   -1.4814 H   0  0  0  0  0  0  0  0  0  0  0  0
   -0.7846    0.8120    0.8708 H   0  0  0  0  0  0  0  0  0  0  0  0
   -0.9082    1.7883   -0.5892 H   0  0  0  0  0  0  0  0  0  0  0  0
   -1.1133   -1.2732   -0.4782 H   0  0  0  0  0  0  0  0  0  0  0  0
   -1.0447   -0.3353   -1.9662 H   0  0  0  0  0  0  0  0  0  0  0  0
   -3.1365    0.8891   -1.2918 H   0  0  0  0  0  0  0  0  0  0  0  0
   -3.3660   -0.8424   -1.5108 H   0  0  0  0  0  0  0  0  0  0  0  0
   -3.1963   -1.1563    1.0028 H   0  0  0  0  0  0  0  0  0  0  0  0
   -3.0984    0.5925    1.1932 H   0  0  0  0  0  0  0  0  0  0  0  0
   -5.3863   -0.0601    1.5887 H   0  0  0  0  0  0  0  0  0  0  0  0
   -5.3353    0.8382    0.0579 H   0  0  0  0  0  0  0  0  0  0  0  0
   -5.4760   -1.9771    0.2595 H   0  0  0  0  0  0  0  0  0  0  0  0
  1  2  1  0  0  0  0
  1 13  1  0  0  0  0
  1 12  1  0  0  0  0
  2 15  1  0  0  0  0
  3  4  1  0  0  0  0
  3 17  1  0  0  0  0
  3  2  1  0  0  0  0
  4 19  1  0  0  0  0
  5  6  1  0  0  0  0
  5 21  1  0  0  0  0
  5  4  1  0  0  0  0
  6 23  1  0  0  0  0
  7  8  1  0  0  0  0
  7 25  1  0  0  0  0
  7  6  1  0  0  0  0
  8  9  1  0  0  0  0
  9 10  1  0  0  0  0
  9 29  1  0  0  0  0
  9 30  1  0  0  0  0
 10 31  1  0  0  0  0
 11 33  1  0  0  0  0
 11 10  1  0  0  0  0
 14  1  1  0  0  0  0
 16  2  1  0  0  0  0
 18  3  1  0  0  0  0
 20  4  1  0  0  0  0
 22  5  1  0  0  0  0
 24  6  1  0  0  0  0
 26  7  1  0  0  0  0
 27  8  1  0  0  0  0
 28  8  1  0  0  0  0
 32 10  1  0  0  0  0
M  END
>  <Charge>
0.0

>  <InChI>
1/C10H22O/c1-2-3-4-5-6-7-8-9-10-11/h11H,2-10H2,1H3

>  <Molecular Formula>
C_{10}H_{22}O

>  <Name>
DECAN-1-OL

>  <SMILES>
CCCCCCCCCCO

>  <logK (1-PROPANOL)>
7.13

>  <logK (DECAN-1-OL)>
7.03

>  <logK (HEXADECANE)>
5.628

>  <logK (HEXANE)>
5.64

>  <logK (ISOPROPANOL)>
7.16

>  <logK (NONANOL)>
7.066

>  <logK (OCTANE)>
5.77

>  <Formula>
C10H22O

>  <dipole moment>
1.5477952206

>  <mean polarizability>
20.3

$$$$
132
 OpenBabel08101817183D

 17 16  0  0  0  0  0  0  0  0999 V2000
   -0.2832    2.1171    0.4044 C   0  0  0  0  0  0  0  0  0  0  0  0
    0.0000    0.0000    0.0000 Sn  0  0  0  0  0  0  0  0  0  0  0  0
    1.4944   -0.2464   -1.5594 C   0  0  0  0  0  0  0  0  0  0  0  0
   -1.8811   -0.8705   -0.6551 C   0  0  0  0  0  0  0  0  0  0  0  0
    0.6699   -1.0003    1.8101 C   0  0  0  0  0  0  0  0  0  0  0  0
   -1.0355    2.2546    1.1901 H   0  0  0  0  0  0  0  0  0  0  0  0
   -0.6214    2.6333   -0.5020 H   0  0  0  0  0  0  0  0  0  0  0  0
    0.6596    2.5682    0.7361 H   0  0  0  0  0  0  0  0  0  0  0  0
    2.4489    0.1892   -1.2406 H   0  0  0  0  0  0  0  0  0  0  0  0
    1.6464   -1.3112   -1.7727 H   0  0  0  0  0  0  0  0  0  0  0  0
    1.1678    0.2544   -2.4786 H   0  0  0  0  0  0  0  0  0  0  0  0
   -1.7513   -1.9393   -0.8625 H   0  0  0  0  0  0  0  0  0  0  0  0
   -2.2298   -0.3739   -1.5684 H   0  0  0  0  0  0  0  0  0  0  0  0
   -2.6439   -0.7525    0.1237 H   0  0  0  0  0  0  0  0  0  0  0  0
    0.8165   -2.0700    1.6188 H   0  0  0  0  0  0  0  0  0  0  0  0
   -0.0762   -0.8831    2.6050 H   0  0  0  0  0  0  0  0  0  0  0  0
    1.6190   -0.5697    2.1510 H   0  0  0  0  0  0  0  0  0  0  0  0
  1  8  1  0  0  0  0
  1  6  1  0  0  0  0
  2  1  1  0  0  0  0
  2  5  1  0  0  0  0
  3  9  1  0  0  0  0
  3  2  1  0  0  0  0
  4  2  1  0  0  0  0
  4 14  1  0  0  0  0
  5 17  1  0  0  0  0
  5 16  1  0  0  0  0
  7  1  1  0  0  0  0
 10  3  1  0  0  0  0
 11  3  1  0  0  0  0
 12  4  1  0  0  0  0
 13  4  1  0  0  0  0
 15  5  1  0  0  0  0
M  END
>  <Charge>
0.0

>  <InChI>
1/4CH3.Sn/h4*1H3;/rC4H12Sn/c1-5(2,3)4/h1-4H3

>  <Molecular Formula>
C_{4}H_{12}Sn

>  <Name>
TETRAMETHYLTIN

>  <SMILES>
C[Sn](C)(C)C

>  <logK (1,4-DIOXANE)>
2.52

>  <logK (1-OCTANOL)>
2.62

>  <logK (1-PROPANOL)>
4.47

>  <logK (ACETONE)>
2.55

>  <logK (BROMOBENZENE)>
2.63

>  <logK (CARBON TETRACHLORIDE)>
3.24

>  <logK (CHLOROBENZENE)>
2.96

>  <logK (DIBUTYL ETHER)>
3.12

>  <logK (DICHLOROETHANE)>
2.64

>  <logK (DIMETHYLFORMAMIDE)>
2.25

>  <logK (DODECANE)>
2.73

>  <logK (ETHYL ACETATE)>
2.64

>  <logK (ETHYLENE GLYCOL)>
0.9

>  <logK (HEXADECANE)>
2.92

>  <logK (HEXANE)>
3.03

>  <logK (ISOPROPANOL)>
2.54

>  <logK (N-BUTANOL)>
2.57

>  <logK (N-METHYLPYRROLIDONE)>
2.19

>  <logK (PROPYLENE CARBONATE)>
1.66

>  <logK (TERT-BUTANOL)>
2.83

>  <logK (TETRAHYDROFURAN)>
2.67

>  <logK (TOLUENE)>
2.764

>  <mean polarizability>
14.33

>  <dipole moment>
0.000412115301995

$$$$
133
 OpenBabel08101817183D

 29 28  0  0  0  0  0  0  0  0999 V2000
    3.0548   -0.5255   -0.8488 C   0  0  0  0  0  0  0  0  0  0  0  0
    2.2310   -0.3099    0.4164 C   0  0  0  0  0  0  0  0  0  0  0  0
    0.0000   -0.0003    0.0001 Pb  0  0  0  0  0  0  0  0  0  0  0  0
   -0.2576    1.7394   -1.4674 C   0  0  0  0  0  0  0  0  0  0  0  0
    0.4017    3.0300   -0.9921 C   0  0  0  0  0  0  0  0  0  0  0  0
   -1.0886    0.4785    1.9577 C   0  0  0  0  0  0  0  0  0  0  0  0
   -1.0632   -0.6727    2.9577 C   0  0  0  0  0  0  0  0  0  0  0  0
   -0.8847   -1.9084   -0.9068 C   0  0  0  0  0  0  0  0  0  0  0  0
   -2.3934   -1.8317   -1.1167 C   0  0  0  0  0  0  0  0  0  0  0  0
    2.7164   -1.4050   -1.4147 H   0  0  0  0  0  0  0  0  0  0  0  0
    2.9985    0.3379   -1.5271 H   0  0  0  0  0  0  0  0  0  0  0  0
    4.1211   -0.6833   -0.6173 H   0  0  0  0  0  0  0  0  0  0  0  0
    2.2925   -1.1710    1.0948 H   0  0  0  0  0  0  0  0  0  0  0  0
    2.5621    0.5762    0.9738 H   0  0  0  0  0  0  0  0  0  0  0  0
   -1.3406    1.8603   -1.6016 H   0  0  0  0  0  0  0  0  0  0  0  0
    0.1590    1.3954   -2.4231 H   0  0  0  0  0  0  0  0  0  0  0  0
    0.2516    3.8517   -1.7116 H   0  0  0  0  0  0  0  0  0  0  0  0
   -0.0057    3.3691   -0.0291 H   0  0  0  0  0  0  0  0  0  0  0  0
    1.4869    2.9123   -0.8617 H   0  0  0  0  0  0  0  0  0  0  0  0
   -0.6024    1.3777    2.3586 H   0  0  0  0  0  0  0  0  0  0  0  0
   -2.1137    0.7530    1.6762 H   0  0  0  0  0  0  0  0  0  0  0  0
   -1.5540   -1.5724    2.5600 H   0  0  0  0  0  0  0  0  0  0  0  0
   -1.5835   -0.4096    3.8934 H   0  0  0  0  0  0  0  0  0  0  0  0
   -0.0371   -0.9571    3.2310 H   0  0  0  0  0  0  0  0  0  0  0  0
   -0.3491   -2.0669   -1.8521 H   0  0  0  0  0  0  0  0  0  0  0  0
   -0.6074   -2.7250   -0.2272 H   0  0  0  0  0  0  0  0  0  0  0  0
   -2.9318   -1.6779   -0.1706 H   0  0  0  0  0  0  0  0  0  0  0  0
   -2.6736   -1.0068   -1.7870 H   0  0  0  0  0  0  0  0  0  0  0  0
   -2.7888   -2.7581   -1.5648 H   0  0  0  0  0  0  0  0  0  0  0  0
  1 12  1  0  0  0  0
  1  2  1  0  0  0  0
  2 14  1  0  0  0  0
  2 13  1  0  0  0  0
  3  2  1  0  0  0  0
  3  6  1  0  0  0  0
  4  5  1  0  0  0  0
  4  3  1  0  0  0  0
  5 19  1  0  0  0  0
  5 18  1  0  0  0  0
  6 20  1  0  0  0  0
  6  7  1  0  0  0  0
  7 24  1  0  0  0  0
  7 23  1  0  0  0  0
  8 26  1  0  0  0  0
  8  3  1  0  0  0  0
  9  8  1  0  0  0  0
  9 27  1  0  0  0  0
 10  1  1  0  0  0  0
 11  1  1  0  0  0  0
 15  4  1  0  0  0  0
 16  4  1  0  0  0  0
 17  5  1  0  0  0  0
 21  6  1  0  0  0  0
 22  7  1  0  0  0  0
 25  8  1  0  0  0  0
 28  9  1  0  0  0  0
 29  9  1  0  0  0  0
M  END
>  <Charge>
0.0

>  <InChI>
1/4C2H5.Pb/c4*1-2;/h4*1H2,2H3;/rC8H20Pb/c1-5-9(6-2,7-3)8-4/h5-8H2,1-4H3

>  <Molecular Formula>
C_{8}H_{20}Pb

>  <Name>
TETRAETHYLPLUMBANE

>  <SMILES>
CC[Pb](CC)(CC)CC

>  <logK (1-PROPANOL)>
4.69

>  <logK (ACETONE)>
4.56

>  <dipole moment>
0.000925288397165

>  <mean polarizability>
23.93

$$$$
134
 OpenBabel08101817183D

 15 15  0  0  0  0  0  0  0  0999 V2000
   -2.1042   -0.1138    0.0561 C   0  0  0  0  0  0  0  0  0  0  0  0
   -1.4632    1.1073    0.2769 C   0  0  0  0  0  0  0  0  0  0  0  0
   -0.0705    1.1758    0.2701 C   0  0  0  0  0  0  0  0  0  0  0  0
    0.6981    0.0262    0.0430 C   0  0  0  0  0  0  0  0  0  0  0  0
    0.0458   -1.1948   -0.1752 C   0  0  0  0  0  0  0  0  0  0  0  0
   -1.3468   -1.2655   -0.1688 C   0  0  0  0  0  0  0  0  0  0  0  0
    2.1917    0.1005    0.0376 C   0  0  0  0  0  0  0  0  0  0  0  0
    2.8537    0.4456   -1.6273 Cl  0  0  0  0  0  0  0  0  0  0  0  0
   -3.1928   -0.1684    0.0624 H   0  0  0  0  0  0  0  0  0  0  0  0
   -2.0511    2.0072    0.4581 H   0  0  0  0  0  0  0  0  0  0  0  0
    0.4301    2.1302    0.4409 H   0  0  0  0  0  0  0  0  0  0  0  0
    0.6374   -2.0944   -0.3525 H   0  0  0  0  0  0  0  0  0  0  0  0
   -1.8435   -2.2212   -0.3361 H   0  0  0  0  0  0  0  0  0  0  0  0
    2.6507   -0.8453    0.3426 H   0  0  0  0  0  0  0  0  0  0  0  0
    2.5645    0.9108    0.6723 H   0  0  0  0  0  0  0  0  0  0  0  0
  1  9  1  0  0  0  0
  1  2  2  0  0  0  0
  2 10  1  0  0  0  0
  3  2  1  0  0  0  0
  3 11  1  0  0  0  0
  4  3  2  0  0  0  0
  5  6  2  0  0  0  0
  5  4  1  0  0  0  0
  6  1  1  0  0  0  0
  7  4  1  0  0  0  0
  7 14  1  0  0  0  0
  7 15  1  0  0  0  0
  8  7  1  0  0  0  0
 12  5  1  0  0  0  0
 13  6  1  0  0  0  0
M  END
>  <Charge>
0.0

>  <InChI>
1/C7H7Cl/c8-6-7-4-2-1-3-5-7/h1-5H,6H2

>  <Molecular Formula>
C_{7}H_{7}Cl

>  <Name>
BENZYL CHLORIDE

>  <SMILES>
c1ccc(cc1)CCl

>  <logK (1,4-DIOXANE)>
5.3

>  <logK (1-PROPANOL)>
4.41

>  <logK (HEXADECANE)>
4.29

>  <logK (ISOPROPANOL)>
4.37

>  <logK (N-BUTANOL)>
4.47

>  <logK (TERT-BUTANOL)>
4.45

>  <mean polarizability>
14.57

>  <dipole moment>
2.10086853627

$$$$
135
 OpenBabel08101817183D

 15 15  0  0  0  0  0  0  0  0999 V2000
   -2.0997    0.2101    0.1186 C   0  0  0  0  0  0  0  0  0  0  0  0
   -1.2826    1.3428    0.1048 C   0  0  0  0  0  0  0  0  0  0  0  0
    0.0996    1.2052   -0.0110 C   0  0  0  0  0  0  0  0  0  0  0  0
    0.6840   -0.0654   -0.1161 C   0  0  0  0  0  0  0  0  0  0  0  0
   -0.1458   -1.1961   -0.1036 C   0  0  0  0  0  0  0  0  0  0  0  0
   -1.5282   -1.0600    0.0121 C   0  0  0  0  0  0  0  0  0  0  0  0
    2.1588   -0.2110   -0.2513 C   0  0  0  0  0  0  0  0  0  0  0  0
    3.0626   -0.3725    1.5273 Br  0  0  0  0  0  0  0  0  0  0  0  0
   -3.1807    0.3171    0.2091 H   0  0  0  0  0  0  0  0  0  0  0  0
   -1.7253    2.3359    0.1824 H   0  0  0  0  0  0  0  0  0  0  0  0
    0.7376    2.0905   -0.0184 H   0  0  0  0  0  0  0  0  0  0  0  0
    0.3001   -2.1888   -0.1835 H   0  0  0  0  0  0  0  0  0  0  0  0
   -2.1631   -1.9460    0.0172 H   0  0  0  0  0  0  0  0  0  0  0  0
    2.6325    0.6610   -0.7092 H   0  0  0  0  0  0  0  0  0  0  0  0
    2.4500   -1.1231   -0.7783 H   0  0  0  0  0  0  0  0  0  0  0  0
  1  9  1  0  0  0  0
  2  1  1  0  0  0  0
  2 10  1  0  0  0  0
  3  2  2  0  0  0  0
  4  5  2  0  0  0  0
  4  3  1  0  0  0  0
  5  6  1  0  0  0  0
  6 13  1  0  0  0  0
  6  1  2  0  0  0  0
  7  4  1  0  0  0  0
  7  8  1  0  0  0  0
 11  3  1  0  0  0  0
 12  5  1  0  0  0  0
 14  7  1  0  0  0  0
 15  7  1  0  0  0  0
M  END
>  <Charge>
0.0

>  <InChI>
1/C7H7Br/c8-6-7-4-2-1-3-5-7/h1-5H,6H2

>  <Molecular Formula>
C_{7}H_{7}Br

>  <Name>
BENZYL BROMIDE

>  <SMILES>
c1ccc(cc1)CBr

>  <logK (1-PROPANOL)>
4.7

>  <logK (HEXADECANE)>
4.66

>  <logK (ISOPROPANOL)>
4.53

>  <logK (N-BUTANOL)>
4.67

>  <logK (TERT-BUTANOL)>
4.66

>  <mean polarizability>
15.58

>  <dipole moment>
2.15415083011

$$$$
136
 OpenBabel08101817183D

 14 14  0  0  0  0  0  0  0  0999 V2000
   -2.0896   -0.0255    0.1244 C   0  0  0  0  0  0  0  0  0  0  0  0
   -0.5903    0.0665    0.0418 C   0  0  0  0  0  0  0  0  0  0  0  0
    0.2199   -1.0625   -0.1099 C   0  0  0  0  0  0  0  0  0  0  0  0
    1.6047   -0.9124   -0.1802 C   0  0  0  0  0  0  0  0  0  0  0  0
    2.1416    0.3714   -0.0961 C   0  0  0  0  0  0  0  0  0  0  0  0
    1.3903    1.4733    0.0496 N   0  0  0  0  0  0  0  0  0  0  0  0
    0.0645    1.3064    0.1148 C   0  0  0  0  0  0  0  0  0  0  0  0
   -2.5700    0.5445   -0.6836 H   0  0  0  0  0  0  0  0  0  0  0  0
   -2.4296   -1.0658    0.0505 H   0  0  0  0  0  0  0  0  0  0  0  0
   -2.4634    0.3848    1.0733 H   0  0  0  0  0  0  0  0  0  0  0  0
   -0.2334   -2.0537   -0.1725 H   0  0  0  0  0  0  0  0  0  0  0  0
    2.2581   -1.7768   -0.2984 H   0  0  0  0  0  0  0  0  0  0  0  0
    3.2220    0.5278   -0.1474 H   0  0  0  0  0  0  0  0  0  0  0  0
   -0.5248    2.2218    0.2337 H   0  0  0  0  0  0  0  0  0  0  0  0
  1 10  1  0  0  0  0
  2  7  2  0  0  0  0
  2  1  1  0  0  0  0
  3  2  1  0  0  0  0
  4  3  2  0  0  0  0
  4  5  1  0  0  0  0
  5  6  2  0  0  0  0
  6  7  1  0  0  0  0
  7 14  1  0  0  0  0
  8  1  1  0  0  0  0
  9  1  1  0  0  0  0
 11  3  1  0  0  0  0
 12  4  1  0  0  0  0
 13  5  1  0  0  0  0
M  END
>  <Charge>
0.0

>  <InChI>
1/C6H7N/c1-6-3-2-4-7-5-6/h2-5H,1H3

>  <Molecular Formula>
C_{6}H_{7}N

>  <Name>
3-MEPY

>  <SMILES>
Cc1cccnc1

>  <logK (1-PROPANOL)>
4.65

>  <logK (2,2,4-TRIMETHYLPENTANE)>
3.64

>  <logK (CHLOROFORM)>
5.39

>  <logK (HEXADECANE)>
3.603

>  <logK (N-BUTANOL)>
4.7

>  <logK (TERT-BUTANOL)>
4.27

>  <mean polarizability>
11.49

>  <dipole moment>
2.44583441601

$$$$
137
 OpenBabel08101817183D

  9  9  0  0  0  0  0  0  0  0999 V2000
   -0.7179   -0.6956   -0.0511 C   0  0  0  0  0  0  0  0  0  0  0  0
    0.7024   -0.7125    0.0295 C   0  0  0  0  0  0  0  0  0  0  0  0
    1.2427    0.5504    0.0788 C   0  0  0  0  0  0  0  0  0  0  0  0
    0.0194    1.7568    0.0269 S   0  0  0  0  0  0  0  0  0  0  0  0
   -1.2302    0.5798   -0.0614 C   0  0  0  0  0  0  0  0  0  0  0  0
   -1.3381   -1.5881   -0.0995 H   0  0  0  0  0  0  0  0  0  0  0  0
    1.3028   -1.6195    0.0503 H   0  0  0  0  0  0  0  0  0  0  0  0
    2.2870    0.8374    0.1424 H   0  0  0  0  0  0  0  0  0  0  0  0
   -2.2679    0.8915   -0.1158 H   0  0  0  0  0  0  0  0  0  0  0  0
  1  2  1  0  0  0  0
  2  7  1  0  0  0  0
  2  3  2  0  0  0  0
  3  8  1  0  0  0  0
  4  3  1  0  0  0  0
  5  1  2  0  0  0  0
  5  4  1  0  0  0  0
  6  1  1  0  0  0  0
  9  5  1  0  0  0  0
M  END
>  <Charge>
0.0

>  <InChI>
1/C4H4S/c1-2-4-5-3-1/h1-4H

>  <Molecular Formula>
C_{4}H_{4}S

>  <Name>
THIOPHENE

>  <SMILES>
c1ccsc1

>  <logK (1-PROPANOL)>
2.72

>  <logK (4-FORMYLMORPHOLINE)>
3.22

>  <logK (HEPTANE)>
2.998

>  <logK (HEXADECANE)>
2.943

>  <logK (ISOPROPANOL)>
2.75

>  <logK (N-METHYLPYRROLIDONE)>
3.43

>  <mean polarizability>
9.31

>  <dipole moment>
0.449096034944

$$$$
138
 OpenBabel08101817183D

  2  0  0  0  0  0  0  0  0  0999 V2000
    0.3751   -0.0000   -0.0000 H   0  0  0  0  0  0  0  0  0  0  0  0
   -0.3751    0.0000   -0.0000 H   0  0  0  0  0  0  0  0  0  0  0  0
M  END
>  <Charge>
0.0

>  <InChI>
1/H2/h1H/i1+1D

>  <Molecular Formula>
D_{2}

>  <Name>
MOLECULAR DEUTERIUM

>  <SMILES>
[2H][2H]

>  <logK ((\xb1)-2-BUTANOL)>
-1.13

>  <logK (1,4-DIOXANE)>
-1.26

>  <logK (2,2,4-TRIMETHYLPENTANE)>
-0.931

>  <logK (BROMOBENZENE)>
-1.29

>  <logK (CHLOROBENZENE)>
-1.21

>  <logK (CYCLOHEXANONE)>
-1.266

>  <logK (HEPTANE)>
-0.93

>  <logK (ISOBUTANOL)>
-1.12

>  <logK (N-BUTANOL)>
-1.12

>  <logK (OCTANE)>
-0.98

>  <logK (TERT-BUTANOL)>
-1.07

>  <logK (TETRAHYDROFURAN)>
-1.08

>  <mean polarizability>
0.72

>  <dipole moment>
3.94644958499e-15

$$$$
139
 OpenBabel08101817183D

 20 19  0  0  0  0  0  0  0  0999 V2000
   -2.4338   -0.3419   -0.3450 C   0  0  0  0  0  0  0  0  0  0  0  0
   -0.9482   -0.7069   -0.3178 C   0  0  0  0  0  0  0  0  0  0  0  0
    0.0045    0.5016   -0.3590 C   0  0  0  0  0  0  0  0  0  0  0  0
   -0.0940    1.3632    0.9063 C   0  0  0  0  0  0  0  0  0  0  0  0
    1.4590    0.0813   -0.6593 C   0  0  0  0  0  0  0  0  0  0  0  0
    2.1317   -0.8102    0.3885 C   0  0  0  0  0  0  0  0  0  0  0  0
   -2.7284    0.2508    0.5317 H   0  0  0  0  0  0  0  0  0  0  0  0
   -3.0629   -1.2425   -0.3558 H   0  0  0  0  0  0  0  0  0  0  0  0
   -2.6800    0.2459   -1.2416 H   0  0  0  0  0  0  0  0  0  0  0  0
   -0.7380   -1.3092    0.5812 H   0  0  0  0  0  0  0  0  0  0  0  0
   -0.7250   -1.3576   -1.1796 H   0  0  0  0  0  0  0  0  0  0  0  0
   -0.3138    1.1308   -1.2102 H   0  0  0  0  0  0  0  0  0  0  0  0
   -1.1015    1.7802    1.0354 H   0  0  0  0  0  0  0  0  0  0  0  0
    0.1386    0.7808    1.8098 H   0  0  0  0  0  0  0  0  0  0  0  0
    0.6076    2.2087    0.8637 H   0  0  0  0  0  0  0  0  0  0  0  0
    1.4744   -0.4366   -1.6324 H   0  0  0  0  0  0  0  0  0  0  0  0
    2.0624    0.9942   -0.7921 H   0  0  0  0  0  0  0  0  0  0  0  0
    2.1847   -0.3211    1.3709 H   0  0  0  0  0  0  0  0  0  0  0  0
    1.6014   -1.7636    0.5178 H   0  0  0  0  0  0  0  0  0  0  0  0
    3.1613   -1.0481    0.0878 H   0  0  0  0  0  0  0  0  0  0  0  0
  1  2  1  0  0  0  0
  1  7  1  0  0  0  0
  2 10  1  0  0  0  0
  3  2  1  0  0  0  0
  3  4  1  0  0  0  0
  4 13  1  0  0  0  0
  4 14  1  0  0  0  0
  5  3  1  0  0  0  0
  5  6  1  0  0  0  0
  6 19  1  0  0  0  0
  6 18  1  0  0  0  0
  8  1  1  0  0  0  0
  9  1  1  0  0  0  0
 11  2  1  0  0  0  0
 12  3  1  0  0  0  0
 15  4  1  0  0  0  0
 16  5  1  0  0  0  0
 17  5  1  0  0  0  0
 20  6  1  0  0  0  0
M  END
>  <Charge>
0.0

>  <InChI>
1/C6H14/c1-4-6(3)5-2/h6H,4-5H2,1-3H3

>  <Molecular Formula>
C_{6}H_{14}

>  <Name>
3-METHYLPENTANE

>  <SMILES>
CCC(C)CC

>  <logK (1-HEXADECENE)>
2.513

>  <logK (N-BUTANOL)>
2.34

>  <logK (PENTANOL)>
2.44

>  <mean polarizability>
11.69

>  <dipole moment>
0.115678716845

$$$$
140
 OpenBabel08101817183D

 20 19  0  0  0  0  0  0  0  0999 V2000
    2.0007   -0.8084    0.2909 C   0  0  0  0  0  0  0  0  0  0  0  0
    1.1088    0.2010   -0.4333 C   0  0  0  0  0  0  0  0  0  0  0  0
   -0.3992    0.1839   -0.0787 C   0  0  0  0  0  0  0  0  0  0  0  0
   -1.0927    1.2698   -0.9179 C   0  0  0  0  0  0  0  0  0  0  0  0
   -0.6127    0.4942    1.4120 C   0  0  0  0  0  0  0  0  0  0  0  0
   -1.0235   -1.1803   -0.4155 C   0  0  0  0  0  0  0  0  0  0  0  0
    3.0433   -0.7037   -0.0392 H   0  0  0  0  0  0  0  0  0  0  0  0
    1.9888   -0.6626    1.3795 H   0  0  0  0  0  0  0  0  0  0  0  0
    1.6989   -1.8450    0.0886 H   0  0  0  0  0  0  0  0  0  0  0  0
    1.4891    1.2182   -0.2411 H   0  0  0  0  0  0  0  0  0  0  0  0
    1.2014    0.0456   -1.5213 H   0  0  0  0  0  0  0  0  0  0  0  0
   -2.1715    1.3048   -0.7076 H   0  0  0  0  0  0  0  0  0  0  0  0
   -0.9653    1.0794   -1.9937 H   0  0  0  0  0  0  0  0  0  0  0  0
   -0.6748    2.2639   -0.7009 H   0  0  0  0  0  0  0  0  0  0  0  0
   -0.1728   -0.2778    2.0580 H   0  0  0  0  0  0  0  0  0  0  0  0
   -0.1619    1.4603    1.6836 H   0  0  0  0  0  0  0  0  0  0  0  0
   -1.6857    0.5478    1.6471 H   0  0  0  0  0  0  0  0  0  0  0  0
   -0.5924   -1.9887    0.1907 H   0  0  0  0  0  0  0  0  0  0  0  0
   -0.8718   -1.4340   -1.4752 H   0  0  0  0  0  0  0  0  0  0  0  0
   -2.1067   -1.1684   -0.2260 H   0  0  0  0  0  0  0  0  0  0  0  0
  1  8  1  0  0  0  0
  2 10  1  0  0  0  0
  2  3  1  0  0  0  0
  2  1  1  0  0  0  0
  3  5  1  0  0  0  0
  4 12  1  0  0  0  0
  4 14  1  0  0  0  0
  4  3  1  0  0  0  0
  5 17  1  0  0  0  0
  5 16  1  0  0  0  0
  5 15  1  0  0  0  0
  6 20  1  0  0  0  0
  6  3  1  0  0  0  0
  6 18  1  0  0  0  0
  7  1  1  0  0  0  0
  9  1  1  0  0  0  0
 11  2  1  0  0  0  0
 13  4  1  0  0  0  0
 19  6  1  0  0  0  0
M  END
>  <Charge>
0.0

>  <InChI>
1/C6H14/c1-5-6(2,3)4/h5H2,1-4H3

>  <Molecular Formula>
C_{6}H_{14}

>  <Name>
2,2-DIMETHYLBUTANE

>  <SMILES>
CCC(C)(C)C

>  <logK (1-HEXADECENE)>
2.29462845663

>  <logK (DECANE)>
2.48

>  <logK (DIMETHYLFORMAMIDE)>
1.71

>  <logK (HEXANE)>
2.67

>  <logK (ISOPROPANOL)>
2.0

>  <logK (N-BUTANOL)>
2.12

>  <logK (N-METHYLPYRROLIDONE)>
1.56

>  <logK (PENTANOL)>
2.15

>  <logK (TERT-AMYL METHYL ETHER)>
2.559

>  <mean polarizability>
11.76

>  <dipole moment>
0.0637640054956

$$$$
141
 OpenBabel08101817183D

 20 19  0  0  0  0  0  0  0  0999 V2000
   -1.1090    1.1851    0.6610 C   0  0  0  0  0  0  0  0  0  0  0  0
   -0.7089    0.2267   -0.4675 C   0  0  0  0  0  0  0  0  0  0  0  0
   -1.7261   -0.9136   -0.5890 C   0  0  0  0  0  0  0  0  0  0  0  0
    0.7454   -0.3043   -0.3526 C   0  0  0  0  0  0  0  0  0  0  0  0
    1.7787    0.8016   -0.5956 C   0  0  0  0  0  0  0  0  0  0  0  0
    1.0367   -1.0312    0.9661 C   0  0  0  0  0  0  0  0  0  0  0  0
   -1.1610    0.6662    1.6290 H   0  0  0  0  0  0  0  0  0  0  0  0
   -0.4060    2.0225    0.7651 H   0  0  0  0  0  0  0  0  0  0  0  0
   -2.1027    1.6126    0.4674 H   0  0  0  0  0  0  0  0  0  0  0  0
   -0.7457    0.7973   -1.4126 H   0  0  0  0  0  0  0  0  0  0  0  0
   -1.4688   -1.5940   -1.4135 H   0  0  0  0  0  0  0  0  0  0  0  0
   -1.7784   -1.5094    0.3338 H   0  0  0  0  0  0  0  0  0  0  0  0
   -2.7349   -0.5215   -0.7800 H   0  0  0  0  0  0  0  0  0  0  0  0
    0.8604   -1.0414   -1.1672 H   0  0  0  0  0  0  0  0  0  0  0  0
    1.7544    1.5602    0.2003 H   0  0  0  0  0  0  0  0  0  0  0  0
    2.7972    0.3892   -0.6201 H   0  0  0  0  0  0  0  0  0  0  0  0
    1.6006    1.3133   -1.5523 H   0  0  0  0  0  0  0  0  0  0  0  0
    0.3204   -1.8402    1.1627 H   0  0  0  0  0  0  0  0  0  0  0  0
    2.0401   -1.4790    0.9441 H   0  0  0  0  0  0  0  0  0  0  0  0
    1.0076   -0.3399    1.8206 H   0  0  0  0  0  0  0  0  0  0  0  0
  1  8  1  0  0  0  0
  1  7  1  0  0  0  0
  2  4  1  0  0  0  0
  2  1  1  0  0  0  0
  3  2  1  0  0  0  0
  3 12  1  0  0  0  0
  4  6  1  0  0  0  0
  5  4  1  0  0  0  0
  5 15  1  0  0  0  0
  6 18  1  0  0  0  0
  6 20  1  0  0  0  0
  9  1  1  0  0  0  0
 10  2  1  0  0  0  0
 11  3  1  0  0  0  0
 13  3  1  0  0  0  0
 14  4  1  0  0  0  0
 16  5  1  0  0  0  0
 17  5  1  0  0  0  0
 19  6  1  0  0  0  0
M  END
>  <Charge>
0.0

>  <InChI>
1/C6H14/c1-5(2)6(3)4/h5-6H,1-4H3

>  <Molecular Formula>
C_{6}H_{14}

>  <Name>
2,3-DIMETHYLBUTANE

>  <SMILES>
CC(C)C(C)C

>  <logK (1-HEXADECENE)>
2.43376882314

>  <logK (DIISOPROPYL ETHER)>
2.712

>  <logK (N-BUTANOL)>
2.25

>  <logK (PENTANOL)>
2.31

>  <mean polarizability>
11.7

>  <dipole moment>
0.156785722402

$$$$
142
 OpenBabel08101817183D

 15 14  0  0  0  0  0  0  0  0999 V2000
   -2.2502    0.2622   -0.0806 C   0  0  0  0  0  0  0  0  0  0  0  0
   -0.9159   -0.0659   -0.7492 C   0  0  0  0  0  0  0  0  0  0  0  0
    0.2486   -0.1480    0.2518 C   0  0  0  0  0  0  0  0  0  0  0  0
    1.5514   -0.5198   -0.3883 C   0  0  0  0  0  0  0  0  0  0  0  0
    2.6576    0.2284   -0.3831 C   0  0  0  0  0  0  0  0  0  0  0  0
   -2.5210   -0.5012    0.6630 H   0  0  0  0  0  0  0  0  0  0  0  0
   -3.0652    0.3164   -0.8146 H   0  0  0  0  0  0  0  0  0  0  0  0
   -2.2066    1.2294    0.4404 H   0  0  0  0  0  0  0  0  0  0  0  0
   -0.9957   -1.0230   -1.2892 H   0  0  0  0  0  0  0  0  0  0  0  0
   -0.6792    0.6940   -1.5097 H   0  0  0  0  0  0  0  0  0  0  0  0
    0.3545    0.8136    0.7786 H   0  0  0  0  0  0  0  0  0  0  0  0
   -0.0074   -0.8999    1.0194 H   0  0  0  0  0  0  0  0  0  0  0  0
    1.5692   -1.4838   -0.9096 H   0  0  0  0  0  0  0  0  0  0  0  0
    3.5724   -0.0994   -0.8767 H   0  0  0  0  0  0  0  0  0  0  0  0
    2.6874    1.1968    0.1208 H   0  0  0  0  0  0  0  0  0  0  0  0
  1  8  1  0  0  0  0
  1  6  1  0  0  0  0
  2  1  1  0  0  0  0
  2  3  1  0  0  0  0
  3 11  1  0  0  0  0
  3 12  1  0  0  0  0
  4  5  2  0  0  0  0
  4  3  1  0  0  0  0
  5 15  1  0  0  0  0
  7  1  1  0  0  0  0
  9  2  1  0  0  0  0
 10  2  1  0  0  0  0
 13  4  1  0  0  0  0
 14  5  1  0  0  0  0
M  END
>  <Charge>
0.0

>  <InChI>
1/C5H10/c1-3-5-4-2/h3H,1,4-5H2,2H3

>  <Molecular Formula>
C_{5}H_{10}

>  <Name>
PENT-1-ENE

>  <SMILES>
CCCC=C

>  <logK (1,5-DIMETHYL-2-PYRROLIDINONE)>
1.786

>  <logK (1-ETHYL-2-PYRROLIDINONE)>
1.794

>  <logK (1-HEXADECENE)>
2.027

>  <logK (1-METHYL-2-PIPERIDINONE)>
1.77

>  <logK (1-OCTANOL)>
1.93

>  <logK (2,2,4-TRIMETHYLPENTANE)>
2.248

>  <logK (4-FORMYLMORPHOLINE)>
1.35

>  <logK (ACETOPHENONE)>
1.841

>  <logK (BENZONITRILE)>
1.91

>  <logK (BUTANONE)>
2.11

>  <logK (CHLOROBENZENE)>
2.21

>  <logK (CYCLOHEXANONE)>
2.028

>  <logK (DICHLOROETHANE)>
2.1

>  <logK (DIMETHYLFORMAMIDE)>
1.7

>  <logK (DODECANE)>
2.14

>  <logK (EPSILON-CAPROLACTONE)>
1.644

>  <logK (ETHYL ACETATE)>
2.17

>  <logK (ETHYLBENZOATE)>
2.002

>  <logK (HEPTANE)>
2.31

>  <logK (HEXADECANE)>
2.013

>  <logK (METHYL ACETATE)>
2.108

>  <logK (N,N-DIETHYLACETAMIDE)>
1.92

>  <logK (N,N-DIMETHYLACETAMIDE)>
1.72

>  <logK (N-BUTANOL)>
1.94

>  <logK (N-ETHYLACETAMIDE)>
1.8

>  <logK (N-ETHYLFORMAMIDE)>
1.66

>  <logK (N-METHYLACETAMIDE)>
1.63

>  <logK (N-METHYLFORMAMIDE)>
1.45

>  <logK (N-METHYLPYRROLIDONE)>
1.65

>  <logK (OCTANE)>
2.27

>  <logK (P-XYLENE)>
2.278

>  <logK (PHENYLAMINE)>
1.511

>  <logK (PYRIDINE)>
1.98

>  <logK (TOLUENE)>
2.277

>  <logK (TRIBUTYL PHOSPHATE)>
1.92

>  <mean polarizability>
9.9

>  <dipole moment>
0.470631222168

$$$$
143
 OpenBabel08101817183D

 15 14  0  0  0  0  0  0  0  0999 V2000
   -0.0893    1.6404    0.0830 C   0  0  0  0  0  0  0  0  0  0  0  0
   -0.1157    0.1628   -0.3403 C   0  0  0  0  0  0  0  0  0  0  0  0
   -1.5583   -0.3673   -0.3721 C   0  0  0  0  0  0  0  0  0  0  0  0
    0.7367   -0.6689    0.5779 C   0  0  0  0  0  0  0  0  0  0  0  0
    1.8092   -1.3758    0.2145 C   0  0  0  0  0  0  0  0  0  0  0  0
    0.9321    2.0424    0.0656 H   0  0  0  0  0  0  0  0  0  0  0  0
   -0.7114    2.2498   -0.5876 H   0  0  0  0  0  0  0  0  0  0  0  0
   -0.4815    1.7609    1.1039 H   0  0  0  0  0  0  0  0  0  0  0  0
    0.3056    0.0847   -1.3564 H   0  0  0  0  0  0  0  0  0  0  0  0
   -2.0125   -0.3234    0.6292 H   0  0  0  0  0  0  0  0  0  0  0  0
   -1.5929   -1.4107   -0.7115 H   0  0  0  0  0  0  0  0  0  0  0  0
   -2.1809    0.2362   -1.0476 H   0  0  0  0  0  0  0  0  0  0  0  0
    0.4246   -0.6754    1.6294 H   0  0  0  0  0  0  0  0  0  0  0  0
    2.3829   -1.9593    0.9345 H   0  0  0  0  0  0  0  0  0  0  0  0
    2.1514   -1.3965   -0.8224 H   0  0  0  0  0  0  0  0  0  0  0  0
  1  8  1  0  0  0  0
  2  1  1  0  0  0  0
  2  4  1  0  0  0  0
  3  2  1  0  0  0  0
  3 10  1  0  0  0  0
  4 13  1  0  0  0  0
  5  4  2  0  0  0  0
  5 14  1  0  0  0  0
  6  1  1  0  0  0  0
  7  1  1  0  0  0  0
  9  2  1  0  0  0  0
 11  3  1  0  0  0  0
 12  3  1  0  0  0  0
 15  5  1  0  0  0  0
M  END
>  <Charge>
0.0

>  <InChI>
1/C5H10/c1-4-5(2)3/h4-5H,1H2,2-3H3

>  <Molecular Formula>
C_{5}H_{10}

>  <Name>
3-METHYLBUT-1-ENE

>  <SMILES>
CC(C)C=C

>  <logK (2,2,4-TRIMETHYLPENTANE)>
2.107

>  <logK (ACETOPHENONE)>
1.806

>  <logK (BUTANONE)>
1.99

>  <logK (CYCLOHEXANONE)>
1.912

>  <logK (DICHLOROETHANE)>
1.99

>  <logK (DIMETHYLFORMAMIDE)>
1.53

>  <logK (DODECANE)>
1.97

>  <logK (ETHYL ACETATE)>
2.01

>  <logK (ETHYLENE GLYCOL)>
0.56

>  <logK (HEPTANE)>
2.17

>  <logK (N,N-DIMETHYLACETAMIDE)>
1.56

>  <logK (N-BUTANOL)>
1.83

>  <logK (N-ETHYLACETAMIDE)>
1.66

>  <logK (N-METHYLACETAMIDE)>
1.57

>  <logK (N-METHYLFORMAMIDE)>
1.28

>  <logK (N-METHYLPYRROLIDONE)>
1.49

>  <logK (OCTANE)>
2.14

>  <logK (P-XYLENE)>
2.43

>  <logK (TOLUENE)>
2.149

>  <mean polarizability>
9.89

>  <dipole moment>
0.399317202279

$$$$
144
 OpenBabel08101817183D

 18 17  0  0  0  0  0  0  0  0999 V2000
   -2.9037   -0.0377   -0.4080 C   0  0  0  0  0  0  0  0  0  0  0  0
   -1.5728    0.6180   -0.0403 C   0  0  0  0  0  0  0  0  0  0  0  0
   -0.3698   -0.3035   -0.2442 C   0  0  0  0  0  0  0  0  0  0  0  0
    0.9666    0.3469    0.1220 C   0  0  0  0  0  0  0  0  0  0  0  0
    2.1572   -0.5598   -0.0782 C   0  0  0  0  0  0  0  0  0  0  0  0
    3.4298   -0.2377    0.1661 C   0  0  0  0  0  0  0  0  0  0  0  0
   -3.7485    0.6464   -0.2518 H   0  0  0  0  0  0  0  0  0  0  0  0
   -3.0855   -0.9356    0.2000 H   0  0  0  0  0  0  0  0  0  0  0  0
   -2.9162   -0.3465   -1.4633 H   0  0  0  0  0  0  0  0  0  0  0  0
   -1.4333    1.5328   -0.6396 H   0  0  0  0  0  0  0  0  0  0  0  0
   -1.6014    0.9481    1.0112 H   0  0  0  0  0  0  0  0  0  0  0  0
   -0.5052   -1.2190    0.3563 H   0  0  0  0  0  0  0  0  0  0  0  0
   -0.3371   -0.6337   -1.2964 H   0  0  0  0  0  0  0  0  0  0  0  0
    1.0998    1.2647   -0.4750 H   0  0  0  0  0  0  0  0  0  0  0  0
    0.9324    0.6811    1.1726 H   0  0  0  0  0  0  0  0  0  0  0  0
    1.9373   -1.5640   -0.4569 H   0  0  0  0  0  0  0  0  0  0  0  0
    4.2384   -0.9481   -0.0035 H   0  0  0  0  0  0  0  0  0  0  0  0
    3.7122    0.7475    0.5443 H   0  0  0  0  0  0  0  0  0  0  0  0
  1  7  1  0  0  0  0
  1  2  1  0  0  0  0
  1  8  1  0  0  0  0
  2 11  1  0  0  0  0
  3  2  1  0  0  0  0
  3  4  1  0  0  0  0
  3 12  1  0  0  0  0
  4 15  1  0  0  0  0
  5  4  1  0  0  0  0
  5  6  2  0  0  0  0
  6 18  1  0  0  0  0
  9  1  1  0  0  0  0
 10  2  1  0  0  0  0
 13  3  1  0  0  0  0
 14  4  1  0  0  0  0
 16  5  1  0  0  0  0
 17  6  1  0  0  0  0
M  END
>  <Charge>
0.0

>  <InChI>
1/C6H12/c1-3-5-6-4-2/h3H,1,4-6H2,2H3

>  <Molecular Formula>
C_{6}H_{12}

>  <Name>
HEXENE

>  <SMILES>
CCCCC=C

>  <logK ((\xb1)-1,2-PROPANEDIOL)>
1.425

>  <logK (1,5-DIMETHYL-2-PYRROLIDINONE)>
2.255

>  <logK (1-ETHYL-2-PYRROLIDINONE)>
2.262

>  <logK (1-HEXADECENE)>
2.548

>  <logK (1-METHYL-2-PIPERIDINONE)>
2.24

>  <logK (1-OCTANOL)>
2.41

>  <logK (2,2,4-TRIMETHYLPENTANE)>
2.772

>  <logK (4-FORMYLMORPHOLINE)>
1.73

>  <logK (BENZONITRILE)>
2.216

>  <logK (CARBON TETRACHLORIDE)>
2.8

>  <logK (DIISOPROPYL ETHER)>
2.833

>  <logK (DIMETHYLFORMAMIDE)>
2.21

>  <logK (EPSILON-CAPROLACTONE)>
2.087

>  <logK (ETHYLBENZOATE)>
2.842

>  <logK (ETHYLENE GLYCOL)>
0.79

>  <logK (FORMAMIDE)>
0.67

>  <logK (HEPTANE)>
2.81

>  <logK (HEXADECANE)>
2.547

>  <logK (M-XYLENE)>
2.738

>  <logK (METHYL ACETATE)>
2.574

>  <logK (N,N-DIETHYLACETAMIDE)>
2.39

>  <logK (N-BUTANOL)>
2.36

>  <logK (N-ETHYLACETAMIDE)>
2.23

>  <logK (N-ETHYLFORMAMIDE)>
2.09

>  <logK (N-METHYLFORMAMIDE)>
1.87

>  <logK (N-METHYLPYRROLIDONE)>
2.06

>  <logK (PENTANOL)>
2.42

>  <logK (PHENYLAMINE)>
1.955

>  <logK (PROPYLENE CARBONATE)>
1.73

>  <logK (SULFOLANE)>
1.527

>  <logK (TOLUENE)>
2.843

>  <logK (TRIBUTYL PHOSPHATE)>
2.42

>  <mean polarizability>
11.77

>  <dipole moment>
0.506178655904

$$$$
145
 OpenBabel08101817183D

 13 12  0  0  0  0  0  0  0  0999 V2000
   -1.5764   -0.0631    0.7407 C   0  0  0  0  0  0  0  0  0  0  0  0
   -0.3258    0.2432   -0.0422 C   0  0  0  0  0  0  0  0  0  0  0  0
   -0.3464    1.0123   -1.1444 C   0  0  0  0  0  0  0  0  0  0  0  0
    0.9218   -0.3286    0.4943 C   0  0  0  0  0  0  0  0  0  0  0  0
    1.9622   -0.7665   -0.2277 C   0  0  0  0  0  0  0  0  0  0  0  0
   -1.4801    0.2885    1.7799 H   0  0  0  0  0  0  0  0  0  0  0  0
   -1.7560   -1.1477    0.7921 H   0  0  0  0  0  0  0  0  0  0  0  0
   -2.4578    0.4149    0.2972 H   0  0  0  0  0  0  0  0  0  0  0  0
   -1.2812    1.4138   -1.5360 H   0  0  0  0  0  0  0  0  0  0  0  0
    0.5699    1.2748   -1.6726 H   0  0  0  0  0  0  0  0  0  0  0  0
    0.9665   -0.4254    1.5850 H   0  0  0  0  0  0  0  0  0  0  0  0
    1.9481   -0.7496   -1.3184 H   0  0  0  0  0  0  0  0  0  0  0  0
    2.8551   -1.1665    0.2518 H   0  0  0  0  0  0  0  0  0  0  0  0
  1  7  1  0  0  0  0
  1  6  1  0  0  0  0
  2  4  1  0  0  0  0
  2  1  1  0  0  0  0
  3  2  2  0  0  0  0
  4 11  1  0  0  0  0
  5 13  1  0  0  0  0
  5  4  2  0  0  0  0
  8  1  1  0  0  0  0
  9  3  1  0  0  0  0
 10  3  1  0  0  0  0
 12  5  1  0  0  0  0
M  END
>  <Charge>
0.0

>  <InChI>
1/C5H8/c1-4-5(2)3/h4H,1-2H2,3H3

>  <Molecular Formula>
C_{5}H_{8}

>  <Name>
ISOPRENE

>  <SMILES>
CC(=C)C=C

>  <logK (1-OCTANOL)>
2.06

>  <logK (2,2,4-TRIMETHYLPENTANE)>
2.317

>  <logK (ACETOPHENONE)>
2.148

>  <logK (BENZONITRILE)>
2.199

>  <logK (BUTANONE)>
2.4

>  <logK (CARBON TETRACHLORIDE)>
2.56

>  <logK (CYCLOHEXANONE)>
2.342

>  <logK (DICHLOROETHANE)>
2.42

>  <logK (DIMETHYLFORMAMIDE)>
2.11

>  <logK (DODECANE)>
2.2

>  <logK (ETHYL ACETATE)>
2.41

>  <logK (ETHYLENE GLYCOL)>
0.82

>  <logK (HEPTANE)>
2.36

>  <logK (N,N-DIMETHYLACETAMIDE)>
2.12

>  <logK (N-BUTANOL)>
2.12

>  <logK (N-ETHYLACETAMIDE)>
2.06

>  <logK (N-METHYLACETAMIDE)>
2.01

>  <logK (N-METHYLFORMAMIDE)>
1.79

>  <logK (N-METHYLPYRROLIDONE)>
2.1

>  <logK (OCTANE)>
2.33

>  <logK (PROPYLENE CARBONATE)>
1.79

>  <logK (TOLUENE)>
2.429

>  <mean polarizability>
9.76

>  <dipole moment>
0.444189913822

$$$$
146
 OpenBabel08101817183D

  8  7  0  0  0  0  0  0  0  0999 V2000
   -0.7554   -0.0977    0.0819 C   0  0  0  0  0  0  0  0  0  0  0  0
    0.7401   -0.1517   -0.1271 C   0  0  0  0  0  0  0  0  0  0  0  0
    1.6347    0.9916    0.9284 Cl  0  0  0  0  0  0  0  0  0  0  0  0
   -1.4852    1.4401   -0.4875 Cl  0  0  0  0  0  0  0  0  0  0  0  0
   -1.0166   -0.2067    1.1398 H   0  0  0  0  0  0  0  0  0  0  0  0
   -1.2279   -0.9036   -0.4945 H   0  0  0  0  0  0  0  0  0  0  0  0
    1.0092    0.0860   -1.1616 H   0  0  0  0  0  0  0  0  0  0  0  0
    1.1011   -1.1583    0.1207 H   0  0  0  0  0  0  0  0  0  0  0  0
  1  5  1  0  0  0  0
  2  1  1  0  0  0  0
  2  8  1  0  0  0  0
  2  3  1  0  0  0  0
  4  1  1  0  0  0  0
  6  1  1  0  0  0  0
  7  2  1  0  0  0  0
M  END
>  <Charge>
0.0

>  <InChI>
1/C2H4Cl2/c3-1-2-4/h1-2H2

>  <Molecular Formula>
C_{2}H_{4}Cl_{2}

>  <Name>
DICHLOROETHANE

>  <SMILES>
C(CCl)Cl

>  <logK (1,4-DIOXANE)>
3.65

>  <logK (1-CHLOROBUTANE)>
3.242

>  <logK (1-OCTANOL)>
2.78

>  <logK (4-METHYLPENTAN-2-ONE)>
3.429

>  <logK (5,8,11,14-TETRAOXAOCTADECANE)>
3.356

>  <logK (BUTANONE)>
3.51

>  <logK (CARBON TETRACHLORIDE)>
3.15

>  <logK (CHLOROFORM)>
3.44

>  <logK (DIBUTYL ETHER)>
3.05

>  <logK (DICHLOROETHANE)>
3.47

>  <logK (DIETHYL ETHER)>
3.26

>  <logK (DIETHYLENE GLYCOL DIBUTYL ETHER)>
3.297

>  <logK (DIIODOMETHANE)>
2.73

>  <logK (DIISOPROPYL ETHER)>
2.843

>  <logK (ETHYL ACETATE)>
3.46

>  <logK (HEPTANE)>
2.71

>  <logK (HEXADECANE)>
2.573

>  <logK (HEXANE)>
2.75

>  <logK (M-XYLENE)>
3.264

>  <logK (METHYL TERT-BUTYL ETHER)>
3.186

>  <logK (N,N-DIBUTYLFORMAMID)>
3.39

>  <logK (N,N-DIMETHYLACETAMIDE)>
3.67

>  <logK (N-BUTANOL)>
2.92

>  <logK (N-METHYLACETAMIDE)>
3.26

>  <logK (O-XYLENE)>
3.238

>  <logK (OCTANE)>
2.71

>  <logK (P-XYLENE)>
3.234

>  <logK (PROPYLENE CARBONATE)>
3.17

>  <logK (SULFOLANE)>
3.346

>  <logK (TETRAETHYLENE GLYCOL DIMETHYL ETHER)>
3.493

>  <logK (TETRAHYDROFURAN)>
3.67

>  <logK (TRIBUTYL PHOSPHATE)>
3.31

>  <logK (UNDECANE)>
2.58

>  <mean polarizability>
8.27

>  <dipole moment>
2.62038307297

>  <experimental polarizability source>
@Article{Bosque2002, Title = {Polarizabilities of Solvents from the Chemical Composition}, Author = {Bosque, Ramon and Sales, Joaquim}, Journal = {Journal of Chemical Information and Computer Sciences}, Year = {2002}, Note = {PMID: 12377003}, Number = {5}, Pages = {1154-1163}, Volume = {42}, Doi = {10.1021/ci025528x}, Url = {https://doi.org/10.1021/ci025528x}}

>  <Formula>
C2H4Cl2

$$$$
147
 OpenBabel08101817183D

 11 10  0  0  0  0  0  0  0  0999 V2000
   -1.3039    0.0753    0.1098 C   0  0  0  0  0  0  0  0  0  0  0  0
    0.0143   -0.3291   -0.5463 C   0  0  0  0  0  0  0  0  0  0  0  0
    1.2486   -0.0019    0.2772 C   0  0  0  0  0  0  0  0  0  0  0  0
    1.4900    1.7818    0.4783 Cl  0  0  0  0  0  0  0  0  0  0  0  0
   -1.3439    1.1591    0.2773 H   0  0  0  0  0  0  0  0  0  0  0  0
   -1.4311   -0.4207    1.0828 H   0  0  0  0  0  0  0  0  0  0  0  0
   -2.1577   -0.2015   -0.5219 H   0  0  0  0  0  0  0  0  0  0  0  0
    0.1100    0.1405   -1.5366 H   0  0  0  0  0  0  0  0  0  0  0  0
    0.0297   -1.4194   -0.7157 H   0  0  0  0  0  0  0  0  0  0  0  0
    2.1633   -0.3729   -0.1975 H   0  0  0  0  0  0  0  0  0  0  0  0
    1.1808   -0.4112    1.2927 H   0  0  0  0  0  0  0  0  0  0  0  0
  1  5  1  0  0  0  0
  1  6  1  0  0  0  0
  2  1  1  0  0  0  0
  2  3  1  0  0  0  0
  3  4  1  0  0  0  0
  3 11  1  0  0  0  0
  7  1  1  0  0  0  0
  8  2  1  0  0  0  0
  9  2  1  0  0  0  0
 10  3  1  0  0  0  0
M  END
>  <Charge>
0.0

>  <InChI>
1/C3H7Cl/c1-2-3-4/h2-3H2,1H3

>  <Molecular Formula>
C_{3}H_{7}Cl

>  <Name>
1-CHLOROPROPANE

>  <SMILES>
CCCCl

>  <logK (1-CHLOROBUTANE)>
2.702

>  <logK (1-HEXADECENE)>
2.23680833734

>  <logK (1-OCTANOL)>
2.24

>  <logK (2,2,4-TRIMETHYLPENTANE)>
2.345

>  <logK (ACETOPHENONE)>
2.53

>  <logK (BUTANONE)>
2.7

>  <logK (CARBON TETRACHLORIDE)>
2.71

>  <logK (CHLOROFORM)>
2.65

>  <logK (CYCLOHEXANONE)>
2.689

>  <logK (DICHLOROETHANE)>
2.71

>  <logK (ETHYL ACETATE)>
2.7

>  <logK (HEPTANE)>
2.41

>  <logK (HEXADECANE)>
2.202

>  <logK (HEXANE)>
2.47

>  <logK (N-BUTANOL)>
2.32

>  <logK (OCTANE)>
2.36

>  <logK (P-XYLENE)>
2.626

>  <logK (PHENYLAMINE)>
2.3

>  <logK (TOLUENE)>
2.682

>  <logK (TRIBUTYL PHOSPHATE)>
2.51

>  <mean polarizability>
8.15

>  <dipole moment>
2.08022651715

$$$$
148
 OpenBabel08101817183D

  8  7  0  0  0  0  0  0  0  0999 V2000
   -1.2195   -0.0290    0.0941 C   0  0  0  0  0  0  0  0  0  0  0  0
    0.0285    0.3515    0.4002 C   0  0  0  0  0  0  0  0  0  0  0  0
    1.1820   -0.1876   -0.3382 C   0  0  0  0  0  0  0  0  0  0  0  0
    2.3427    0.1094   -0.1185 O   0  0  0  0  0  0  0  0  0  0  0  0
   -1.4002   -0.7461   -0.7102 H   0  0  0  0  0  0  0  0  0  0  0  0
   -2.0924    0.3526    0.6221 H   0  0  0  0  0  0  0  0  0  0  0  0
    0.2444    1.0659    1.1969 H   0  0  0  0  0  0  0  0  0  0  0  0
    0.9145   -0.9166   -1.1466 H   0  0  0  0  0  0  0  0  0  0  0  0
  1  2  2  0  0  0  0
  1  6  1  0  0  0  0
  2  7  1  0  0  0  0
  3  4  2  0  0  0  0
  3  2  1  0  0  0  0
  5  1  1  0  0  0  0
  8  3  1  0  0  0  0
M  END
>  <Charge>
0.0

>  <InChI>
1/C3H4O/c1-2-3-4/h2-3H,1H2

>  <Molecular Formula>
C_{3}H_{4}O

>  <Name>
ACROLEIN

>  <SMILES>
C=CC=O

>  <logK (N-BUTANOL)>
2.35

>  <logK (PENTANOL)>
2.36

>  <logK (UNDECANE)>
2.02

>  <mean polarizability>
6.44

>  <dipole moment>
3.29628619275

$$$$
149
 OpenBabel08101817183D

  7  6  0  0  0  0  0  0  0  0999 V2000
   -0.5720   -0.0403    0.0146 C   0  0  0  0  0  0  0  0  0  0  0  0
    0.8448    0.0534   -0.3529 N   0  0  0  0  0  0  0  0  0  0  0  0
   -0.9937   -0.9627   -0.4063 H   0  0  0  0  0  0  0  0  0  0  0  0
   -1.1182    0.7983   -0.4375 H   0  0  0  0  0  0  0  0  0  0  0  0
   -0.7842   -0.0359    1.1000 H   0  0  0  0  0  0  0  0  0  0  0  0
    1.2540    0.9071    0.0265 H   0  0  0  0  0  0  0  0  0  0  0  0
    1.3692   -0.7201    0.0556 H   0  0  0  0  0  0  0  0  0  0  0  0
  1  5  1  0  0  0  0
  2  1  1  0  0  0  0
  2  6  1  0  0  0  0
  2  7  1  0  0  0  0
  3  1  1  0  0  0  0
  4  1  1  0  0  0  0
M  END
>  <Charge>
0.0

>  <InChI>
1/CH5N/c1-2/h2H2,1H3

>  <Molecular Formula>
CH_{5}N

>  <Name>
METHYLAMINE

>  <SMILES>
CN

>  <logK (1-OCTANOL)>
1.9

>  <logK (CARBON TETRACHLORIDE)>
1.85

>  <logK (CHLOROBENZENE)>
1.58

>  <logK (CHLOROFORM)>
2.32

>  <logK (DIMETHYLFORMAMIDE)>
1.95

>  <logK (HEXANE)>
1.202

>  <logK (N-BUTANOL)>
2.12

>  <logK (TOLUENE)>
1.942

>  <mean polarizability>
3.83

>  <dipole moment>
1.28033263013

$$$$
150
 OpenBabel08101817183D

  8  7  0  0  0  0  0  0  0  0999 V2000
   -0.7830   -0.1894    0.0828 C   0  0  0  0  0  0  0  0  0  0  0  0
    0.4767    0.4683   -0.4421 C   0  0  0  0  0  0  0  0  0  0  0  0
    0.5170    1.2778   -1.3339 O   0  0  0  0  0  0  0  0  0  0  0  0
    1.6394    0.0813    0.1767 O   0  0  0  0  0  0  0  0  0  0  0  0
   -0.7260   -1.2813   -0.0310 H   0  0  0  0  0  0  0  0  0  0  0  0
   -1.6466    0.1846   -0.4728 H   0  0  0  0  0  0  0  0  0  0  0  0
   -0.9183    0.0307    1.1512 H   0  0  0  0  0  0  0  0  0  0  0  0
    1.4407   -0.5719    0.8692 H   0  0  0  0  0  0  0  0  0  0  0  0
  1  7  1  0  0  0  0
  2  1  1  0  0  0  0
  2  4  1  0  0  0  0
  3  2  2  0  0  0  0
  4  8  1  0  0  0  0
  5  1  1  0  0  0  0
  6  1  1  0  0  0  0
M  END
>  <Charge>
0.0

>  <InChI>
1/C2H4O2/c1-2(3)4/h1H3,(H,3,4)

>  <Molecular Formula>
C_{2}H_{4}O_{2}

>  <Name>
ACETIC ACID

>  <SMILES>
CC(=O)O

>  <logK (1-HEXADECENE)>
1.772

>  <logK (1-OCTANOL)>
4.31

>  <logK (ACETOPHENONE)>
4.51

>  <logK (BUTANONE)>
3.97

>  <logK (CARBON TETRACHLORIDE)>
2.246

>  <logK (CHLOROFORM)>
3.45

>  <logK (DICHLOROETHANE)>
3.41

>  <logK (HEXADECANE)>
1.75

>  <logK (N-BUTANOL)>
4.35

>  <mean polarizability>
5.22

>  <dipole moment>
4.25986661414

>  <experimental polarizability source>
@Article{Bosque2002, Title = {Polarizabilities of Solvents from the Chemical Composition}, Author = {Bosque, Ramon and Sales, Joaquim}, Journal = {Journal of Chemical Information and Computer Sciences}, Year = {2002}, Note = {PMID: 12377003}, Number = {5}, Pages = {1154-1163}, Volume = {42}, Doi = {10.1021/ci025528x}, Url = {https://doi.org/10.1021/ci025528x}}

>  <Formula>
C2H4O2

$$$$
151
 OpenBabel08101817183D

 15 14  0  0  0  0  0  0  0  0999 V2000
   -0.1597    1.4856   -0.0985 C   0  0  0  0  0  0  0  0  0  0  0  0
    0.1645    0.0502    0.3205 C   0  0  0  0  0  0  0  0  0  0  0  0
    1.5713   -0.3651   -0.1214 C   0  0  0  0  0  0  0  0  0  0  0  0
   -0.8674   -0.9420   -0.2282 C   0  0  0  0  0  0  0  0  0  0  0  0
   -2.2084   -0.6899    0.2020 O   0  0  0  0  0  0  0  0  0  0  0  0
   -1.1835    1.7601    0.1855 H   0  0  0  0  0  0  0  0  0  0  0  0
   -0.0731    1.5966   -1.1905 H   0  0  0  0  0  0  0  0  0  0  0  0
    0.5325    2.2016    0.3661 H   0  0  0  0  0  0  0  0  0  0  0  0
    0.1205   -0.0098    1.4244 H   0  0  0  0  0  0  0  0  0  0  0  0
    1.8158   -1.3855    0.2069 H   0  0  0  0  0  0  0  0  0  0  0  0
    2.3314    0.3125    0.2902 H   0  0  0  0  0  0  0  0  0  0  0  0
    1.6602   -0.3347   -1.2180 H   0  0  0  0  0  0  0  0  0  0  0  0
   -0.5639   -1.9742    0.0273 H   0  0  0  0  0  0  0  0  0  0  0  0
   -0.8978   -0.8726   -1.3267 H   0  0  0  0  0  0  0  0  0  0  0  0
   -2.2425   -0.8326    1.1605 H   0  0  0  0  0  0  0  0  0  0  0  0
  1  6  1  0  0  0  0
  1  2  1  0  0  0  0
  1  8  1  0  0  0  0
  2  9  1  0  0  0  0
  3 10  1  0  0  0  0
  3 11  1  0  0  0  0
  3  2  1  0  0  0  0
  4 13  1  0  0  0  0
  4  5  1  0  0  0  0
  4  2  1  0  0  0  0
  5 15  1  0  0  0  0
  7  1  1  0  0  0  0
 12  3  1  0  0  0  0
 14  4  1  0  0  0  0
M  END
>  <Charge>
0.0

>  <InChI>
1/C4H10O/c1-4(2)3-5/h4-5H,3H2,1-2H3

>  <Molecular Formula>
C_{4}H_{10}O

>  <Name>
ISOBUTANOL

>  <SMILES>
CC(C)CO

>  <logK ((\xb1)-2-BUTANOL)>
4.36

>  <logK (1-CHLOROBUTANE)>
3.231

>  <logK (1-OCTANOL)>
3.93

>  <logK (2,2,4-TRIMETHYLPENTANE)>
2.604

>  <logK (5,8,11,14-TETRAOXAOCTADECANE)>
3.712

>  <logK (BROMOBENZENE)>
3.1

>  <logK (BUTANONE)>
3.98

>  <logK (BUTYL ACETATE)>
3.55

>  <logK (CARBON TETRACHLORIDE)>
2.891

>  <logK (CHLOROBENZENE)>
3.12

>  <logK (CHLOROFORM)>
3.64

>  <logK (DECAN-1-OL)>
3.981

>  <logK (DIETHYLENE GLYCOL DIBUTYL ETHER)>
3.705

>  <logK (DIISOPROPYL ETHER)>
3.621

>  <logK (ETHYLBENZENE)>
2.763

>  <logK (HEPTANE)>
2.58

>  <logK (HEXADECANE)>
2.339

>  <logK (HEXANE)>
2.621

>  <logK (ISOBUTANOL)>
4.28

>  <logK (M-XYLENE)>
3.007

>  <logK (METHYLCYCLOHEXANE)>
2.89

>  <logK (N,N-DIBUTYLFORMAMID)>
4.22

>  <logK (N,N-DIMETHYLACETAMIDE)>
4.43

>  <logK (N-BUTANOL)>
4.21

>  <logK (N-METHYLACETAMIDE)>
4.33

>  <logK (OCTANE)>
2.442

>  <logK (P-XYLENE)>
3.115

>  <logK (PROPYL ETHER)>
3.504

>  <logK (PYRIDINE)>
4.412

>  <logK (SULFOLANE)>
3.576

>  <logK (TERT-BUTANOL)>
4.36

>  <logK (TETRAETHYLENE GLYCOL DIMETHYL ETHER)>
3.799

>  <logK (TOLUENE)>
3.086

>  <mean polarizability>
8.8

>  <dipole moment>
1.64166939846

>  <Formula>
C4H10O

$$$$
152
 OpenBabel08101817183D

 15 14  0  0  1  0  0  0  0  0999 V2000
    1.7916   -0.3107    0.1342 C   0  0  0  0  0  0  0  0  0  0  0  0
    0.6667    0.7239    0.0668 C   0  0  0  0  0  0  0  0  0  0  0  0
   -0.7154    0.1897    0.4601 C   0  0  2  0  0  0  0  0  0  0  0  0
   -1.2544   -0.8713   -0.4954 C   0  0  0  0  0  0  0  0  0  0  0  0
   -1.6551    1.2696    0.6067 O   0  0  0  0  0  0  0  0  0  0  0  0
    1.8613   -0.7542    1.1382 H   0  0  0  0  0  0  0  0  0  0  0  0
    1.6436   -1.1293   -0.5827 H   0  0  0  0  0  0  0  0  0  0  0  0
    2.7624    0.1504   -0.0904 H   0  0  0  0  0  0  0  0  0  0  0  0
    0.8950    1.5659    0.7370 H   0  0  0  0  0  0  0  0  0  0  0  0
    0.6042    1.1425   -0.9534 H   0  0  0  0  0  0  0  0  0  0  0  0
   -0.6493   -0.2393    1.4734 H   0  0  0  0  0  0  0  0  0  0  0  0
   -0.6032   -1.7553   -0.5314 H   0  0  0  0  0  0  0  0  0  0  0  0
   -1.3291   -0.4678   -1.5178 H   0  0  0  0  0  0  0  0  0  0  0  0
   -2.2540   -1.1945   -0.1788 H   0  0  0  0  0  0  0  0  0  0  0  0
   -1.7641    1.6802   -0.2667 H   0  0  0  0  0  0  0  0  0  0  0  0
  1  6  1  0  0  0  0
  2  1  1  0  0  0  0
  2  3  1  0  0  0  0
  2  9  1  0  0  0  0
  3  5  1  0  0  0  0
  3 11  1  1  0  0  0
  4 14  1  0  0  0  0
  4  3  1  0  0  0  0
  7  1  1  0  0  0  0
  8  1  1  0  0  0  0
 10  2  1  0  0  0  0
 12  4  1  0  0  0  0
 13  4  1  0  0  0  0
 15  5  1  0  0  0  0
M  END
>  <Charge>
0.0

>  <InChI>
1/C4H10O/c1-3-4(2)5/h4-5H,3H2,1-2H3

>  <Molecular Formula>
C_{4}H_{10}O

>  <Name>
(\xb1)-2-BUTANOL

>  <SMILES>
CCC(C)O

>  <logK ((\xb1)-2-BUTANOL)>
4.09

>  <logK (1,4-DIOXANE)>
4.06

>  <logK (1-CHLOROBUTANE)>
3.06

>  <logK (1-OCTANOL)>
3.8

>  <logK (2,2,4-TRIMETHYLPENTANE)>
2.508

>  <logK (BROMOBENZENE)>
3.04

>  <logK (BUTANONE)>
3.8

>  <logK (BUTYL ACETATE)>
3.59

>  <logK (CARBON TETRACHLORIDE)>
2.853

>  <logK (CHLOROBENZENE)>
3.12

>  <logK (CHLOROFORM)>
3.69

>  <logK (DECAN-1-OL)>
3.896

>  <logK (DIIODOMETHANE)>
2.66

>  <logK (DIISOPROPYL ETHER)>
3.34

>  <logK (DIMETHYLFORMAMIDE)>
4.16

>  <logK (ETHYLBENZENE)>
2.988

>  <logK (HEPTANE)>
2.39

>  <logK (HEXADECANE)>
2.338

>  <logK (HEXANE)>
2.607

>  <logK (M-XYLENE)>
3.032

>  <logK (METHYLCYCLOHEXANE)>
2.83

>  <logK (N,N-DIMETHYLACETAMIDE)>
4.32

>  <logK (N-BUTANOL)>
4.03

>  <logK (O-XYLENE)>
3.068

>  <logK (OCTANE)>
2.388

>  <logK (P-XYLENE)>
3.104

>  <logK (PROPYL ETHER)>
3.225

>  <logK (PYRIDINE)>
4.136

>  <logK (TERT-BUTANOL)>
4.16

>  <logK (TOLUENE)>
3.077

>  <mean polarizability>
8.81

>  <dipole moment>
1.64667103952

$$$$
153
 OpenBabel08101817183D

 15 14  0  0  0  0  0  0  0  0999 V2000
   -0.8811    1.2178    0.2527 C   0  0  0  0  0  0  0  0  0  0  0  0
   -0.0312    0.0453   -0.2334 C   0  0  0  0  0  0  0  0  0  0  0  0
   -0.6277   -1.2898    0.2279 C   0  0  0  0  0  0  0  0  0  0  0  0
    1.4197    0.1886    0.2417 C   0  0  0  0  0  0  0  0  0  0  0  0
   -0.0800    0.1264   -1.6778 O   0  0  0  0  0  0  0  0  0  0  0  0
   -0.4659    2.1656   -0.1131 H   0  0  0  0  0  0  0  0  0  0  0  0
   -0.9101    1.2478    1.3495 H   0  0  0  0  0  0  0  0  0  0  0  0
   -1.9082    1.1240   -0.1227 H   0  0  0  0  0  0  0  0  0  0  0  0
   -0.0297   -2.1343   -0.1461 H   0  0  0  0  0  0  0  0  0  0  0  0
   -0.6512   -1.3582    1.3244 H   0  0  0  0  0  0  0  0  0  0  0  0
   -1.6522   -1.3982   -0.1505 H   0  0  0  0  0  0  0  0  0  0  0  0
    2.0365   -0.6422   -0.1323 H   0  0  0  0  0  0  0  0  0  0  0  0
    1.8482    1.1294   -0.1270 H   0  0  0  0  0  0  0  0  0  0  0  0
    1.4824    0.1825    1.3388 H   0  0  0  0  0  0  0  0  0  0  0  0
    0.4507   -0.6050   -2.0320 H   0  0  0  0  0  0  0  0  0  0  0  0
  1  7  1  0  0  0  0
  2  3  1  0  0  0  0
  2  4  1  0  0  0  0
  2  1  1  0  0  0  0
  3 10  1  0  0  0  0
  4 14  1  0  0  0  0
  5  2  1  0  0  0  0
  6  1  1  0  0  0  0
  8  1  1  0  0  0  0
  9  3  1  0  0  0  0
 11  3  1  0  0  0  0
 12  4  1  0  0  0  0
 13  4  1  0  0  0  0
 15  5  1  0  0  0  0
M  END
>  <Charge>
0.0

>  <InChI>
1/C4H10O/c1-4(2,3)5/h5H,1-3H3

>  <Molecular Formula>
C_{4}H_{10}O

>  <Name>
TERT-BUTANOL

>  <SMILES>
CC(C)(C)O

>  <logK (1-CHLOROBUTANE)>
2.798

>  <logK (1-OCTANOL)>
3.5

>  <logK (2,2,4-TRIMETHYLPENTANE)>
2.38

>  <logK (4-FORMYLMORPHOLINE)>
3.26

>  <logK (BUTANONE)>
3.45

>  <logK (CARBON TETRACHLORIDE)>
2.426

>  <logK (CHLOROFORM)>
3.26

>  <logK (ETHYLBENZENE)>
2.564

>  <logK (HEPTANE)>
2.21

>  <logK (HEXADECANE)>
2.019

>  <logK (ISOBUTANOL)>
3.77

>  <logK (METHYL TERT-BUTYL ETHER)>
3.2

>  <logK (METHYLCYCLOHEXANE)>
2.56

>  <logK (N-BUTANOL)>
3.76

>  <logK (N-METHYLPYRROLIDONE)>
3.75

>  <logK (P-XYLENE)>
2.466

>  <logK (PROPYL ETHER)>
2.87

>  <logK (PYRIDINE)>
3.715

>  <logK (TERT-AMYL METHYL ETHER)>
3.073

>  <logK (TERT-BUTANOL)>
3.68

>  <logK (TOLUENE)>
2.739

>  <mean polarizability>
8.85

>  <dipole moment>
1.5516270006

>  <Formula>
C4H10O

$$$$
154
 OpenBabel08101817183D

 29 28  0  0  0  0  0  0  0  0999 V2000
    2.6991   -0.5207   -1.6991 C   0  0  0  0  0  0  0  0  0  0  0  0
    1.5714   -1.4423   -1.2276 C   0  0  0  0  0  0  0  0  0  0  0  0
   -0.0770   -0.4317   -0.1835 Sn  0  0  0  0  0  0  0  0  0  0  0  0
   -0.3617    1.5873   -1.0036 C   0  0  0  0  0  0  0  0  0  0  0  0
   -1.0237    2.5763   -0.0403 C   0  0  0  0  0  0  0  0  0  0  0  0
   -1.9092   -1.6104   -0.4454 C   0  0  0  0  0  0  0  0  0  0  0  0
   -3.1821   -0.9340    0.0704 C   0  0  0  0  0  0  0  0  0  0  0  0
    0.3890   -0.2819    1.9563 C   0  0  0  0  0  0  0  0  0  0  0  0
    1.7613    0.3235    2.2635 C   0  0  0  0  0  0  0  0  0  0  0  0
    3.4978   -1.0833   -2.2081 H   0  0  0  0  0  0  0  0  0  0  0  0
    2.3372    0.2375   -2.4077 H   0  0  0  0  0  0  0  0  0  0  0  0
    3.1672    0.0182   -0.8630 H   0  0  0  0  0  0  0  0  0  0  0  0
    1.9555   -2.2103   -0.5405 H   0  0  0  0  0  0  0  0  0  0  0  0
    1.1264   -1.9798   -2.0775 H   0  0  0  0  0  0  0  0  0  0  0  0
   -0.9563    1.4782   -1.9223 H   0  0  0  0  0  0  0  0  0  0  0  0
    0.6276    1.9522   -1.3144 H   0  0  0  0  0  0  0  0  0  0  0  0
   -1.1311    3.5740   -0.4945 H   0  0  0  0  0  0  0  0  0  0  0  0
   -0.4387    2.7037    0.8816 H   0  0  0  0  0  0  0  0  0  0  0  0
   -2.0290    2.2494    0.2603 H   0  0  0  0  0  0  0  0  0  0  0  0
   -1.9920   -1.8316   -1.5196 H   0  0  0  0  0  0  0  0  0  0  0  0
   -1.7453   -2.5736    0.0597 H   0  0  0  0  0  0  0  0  0  0  0  0
   -3.1238   -0.7185    1.1470 H   0  0  0  0  0  0  0  0  0  0  0  0
   -4.0716   -1.5649   -0.0845 H   0  0  0  0  0  0  0  0  0  0  0  0
   -3.3720    0.0205   -0.4408 H   0  0  0  0  0  0  0  0  0  0  0  0
   -0.4118    0.3076    2.4256 H   0  0  0  0  0  0  0  0  0  0  0  0
    0.3098   -1.2990    2.3670 H   0  0  0  0  0  0  0  0  0  0  0  0
    1.8530    1.3488    1.8774 H   0  0  0  0  0  0  0  0  0  0  0  0
    1.9540    0.3688    3.3469 H   0  0  0  0  0  0  0  0  0  0  0  0
    2.5762   -0.2636    1.8165 H   0  0  0  0  0  0  0  0  0  0  0  0
  1  2  1  0  0  0  0
  1 12  1  0  0  0  0
  2 13  1  0  0  0  0
  2  3  1  0  0  0  0
  3  8  1  0  0  0  0
  4  3  1  0  0  0  0
  4  5  1  0  0  0  0
  5 19  1  0  0  0  0
  5 18  1  0  0  0  0
  6  3  1  0  0  0  0
  6 21  1  0  0  0  0
  6  7  1  0  0  0  0
  7 22  1  0  0  0  0
  8  9  1  0  0  0  0
  8 26  1  0  0  0  0
  8 25  1  0  0  0  0
  9 28  1  0  0  0  0
 10  1  1  0  0  0  0
 11  1  1  0  0  0  0
 14  2  1  0  0  0  0
 15  4  1  0  0  0  0
 16  4  1  0  0  0  0
 17  5  1  0  0  0  0
 20  6  1  0  0  0  0
 23  7  1  0  0  0  0
 24  7  1  0  0  0  0
 27  9  1  0  0  0  0
 29  9  1  0  0  0  0
M  END
>  <Charge>
0.0

>  <InChI>
1/4C2H5.Sn/c4*1-2;/h4*1H2,2H3;/rC8H20Sn/c1-5-9(6-2,7-3)8-4/h5-8H2,1-4H3

>  <Molecular Formula>
C_{8}H_{20}Sn

>  <Name>
TETRAETHYLSTANNANE

>  <SMILES>
CC[Sn](CC)(CC)CC

>  <logK (1,4-DIOXANE)>
4.67

>  <logK (ACETONE)>
4.52

>  <logK (CHLOROBENZENE)>
5.3

>  <logK (DIMETHYLFORMAMIDE)>
4.1

>  <logK (HEXADECANE)>
5.08

>  <logK (ISOPROPANOL)>
4.53

>  <logK (N-BUTANOL)>
4.53

>  <logK (TERT-BUTANOL)>
4.87

>  <dipole moment>
0.140663930841

>  <mean polarizability>
21.86

$$$$
155
 OpenBabel08101817183D

 12 12  0  0  0  0  0  0  0  0999 V2000
    1.1411   -0.8043   -0.0338 C   0  0  0  0  0  0  0  0  0  0  0  0
   -0.1265   -1.3904   -0.0306 C   0  0  0  0  0  0  0  0  0  0  0  0
   -1.2675   -0.5861    0.0031 C   0  0  0  0  0  0  0  0  0  0  0  0
   -1.1411    0.8043    0.0338 C   0  0  0  0  0  0  0  0  0  0  0  0
    0.1265    1.3904    0.0306 C   0  0  0  0  0  0  0  0  0  0  0  0
    1.2675    0.5861   -0.0031 C   0  0  0  0  0  0  0  0  0  0  0  0
    2.4824    1.1478   -0.0062 F   0  0  0  0  0  0  0  0  0  0  0  0
    0.2477    2.7230    0.0600 F   0  0  0  0  0  0  0  0  0  0  0  0
   -2.2347    1.5752    0.0662 F   0  0  0  0  0  0  0  0  0  0  0  0
   -2.4824   -1.1478    0.0062 F   0  0  0  0  0  0  0  0  0  0  0  0
   -0.2477   -2.7230   -0.0600 F   0  0  0  0  0  0  0  0  0  0  0  0
    2.2347   -1.5752   -0.0662 F   0  0  0  0  0  0  0  0  0  0  0  0
  1  2  2  0  0  0  0
  1  6  1  0  0  0  0
  2  3  1  0  0  0  0
  3 10  1  0  0  0  0
  3  4  2  0  0  0  0
  4  9  1  0  0  0  0
  5  4  1  0  0  0  0
  5  8  1  0  0  0  0
  6  5  2  0  0  0  0
  7  6  1  0  0  0  0
 11  2  1  0  0  0  0
 12  1  1  0  0  0  0
M  END
>  <Charge>
0.0

>  <InChI>
1/C6F6/c7-1-2(8)4(10)6(12)5(11)3(1)9

>  <Molecular Formula>
C_{6}F_{6}

>  <Name>
PERFLUOROBENZENE

>  <SMILES>
c1(c(c(c(c(c1F)F)F)F)F)F

>  <logK (1,4-DIOXANE)>
3.1

>  <logK (2,2,4-TRIMETHYLPENTANE)>
2.59

>  <logK (DIETHYL ETHER)>
3.13

>  <logK (ETHYLENE GLYCOL)>
1.16

>  <logK (N-BUTANOL)>
2.54

>  <logK (TETRAHYDROFURAN)>
3.3

>  <mean polarizability>
11.11

>  <dipole moment>
1.13544079529e-12

>  <Formula>
C6F6

$$$$
156
 OpenBabel08101817183D

 18 18  0  0  0  0  0  0  0  0999 V2000
    2.1622    0.1287   -0.2245 C   0  0  0  0  0  0  0  0  0  0  0  0
    0.6583    0.0456   -0.4609 C   0  0  0  0  0  0  0  0  0  0  0  0
   -0.1559    1.1848    0.1733 C   0  0  0  0  0  0  0  0  0  0  0  0
   -1.6149    0.6846    0.1579 C   0  0  0  0  0  0  0  0  0  0  0  0
   -1.5252   -0.8707    0.1326 C   0  0  0  0  0  0  0  0  0  0  0  0
   -0.0182   -1.2001    0.1337 C   0  0  0  0  0  0  0  0  0  0  0  0
    2.5878    1.0489   -0.6490 H   0  0  0  0  0  0  0  0  0  0  0  0
    2.6903   -0.7217   -0.6784 H   0  0  0  0  0  0  0  0  0  0  0  0
    2.3856    0.1237    0.8534 H   0  0  0  0  0  0  0  0  0  0  0  0
    0.4681    0.0526   -1.5498 H   0  0  0  0  0  0  0  0  0  0  0  0
    0.1894    1.3278    1.2107 H   0  0  0  0  0  0  0  0  0  0  0  0
   -0.0255    2.1455   -0.3439 H   0  0  0  0  0  0  0  0  0  0  0  0
   -2.1361    1.0509   -0.7374 H   0  0  0  0  0  0  0  0  0  0  0  0
   -2.1826    1.0539    1.0219 H   0  0  0  0  0  0  0  0  0  0  0  0
   -2.0030   -1.2654   -0.7747 H   0  0  0  0  0  0  0  0  0  0  0  0
   -2.0445   -1.3306    0.9835 H   0  0  0  0  0  0  0  0  0  0  0  0
    0.2206   -2.1217   -0.4148 H   0  0  0  0  0  0  0  0  0  0  0  0
    0.3435   -1.3368    1.1664 H   0  0  0  0  0  0  0  0  0  0  0  0
  1  9  1  0  0  0  0
  2  1  1  0  0  0  0
  2  6  1  0  0  0  0
  2  3  1  0  0  0  0
  3 11  1  0  0  0  0
  4  3  1  0  0  0  0
  4 14  1  0  0  0  0
  5  6  1  0  0  0  0
  5  4  1  0  0  0  0
  5 16  1  0  0  0  0
  6 18  1  0  0  0  0
  7  1  1  0  0  0  0
  8  1  1  0  0  0  0
 10  2  1  0  0  0  0
 12  3  1  0  0  0  0
 13  4  1  0  0  0  0
 15  5  1  0  0  0  0
 17  6  1  0  0  0  0
M  END
>  <Charge>
0.0

>  <InChI>
1/C6H12/c1-6-4-2-3-5-6/h6H,2-5H2,1H3

>  <Molecular Formula>
C_{6}H_{12}

>  <Name>
METHYLCYCLOPENTANE

>  <SMILES>
CC1CCCC1

>  <logK (1-METHYL-2-PIPERIDINONE)>
2.32

>  <logK (2-BUTOXYETHANOL)>
2.54

>  <logK (2-ETHOXYETHANOL)>
2.401

>  <logK (4-FORMYLMORPHOLINE)>
1.81

>  <logK (DECANE)>
2.88

>  <logK (DIMETHYLFORMAMIDE)>
2.21

>  <logK (ETHYLBENZOATE)>
2.607

>  <logK (HEPTAN-1-OL)>
2.57

>  <logK (METHOXYETHANOL)>
2.195

>  <logK (N-METHYLFORMAMIDE)>
1.96

>  <logK (N-METHYLPYRROLIDONE)>
2.19

>  <logK (PENTANOL)>
2.57

>  <logK (PROPYLENE CARBONATE)>
1.77

>  <logK (SULFOLANE)>
1.618

>  <mean polarizability>
10.97

>  <dipole moment>
0.107289185631

$$$$
157
 OpenBabel08101817183D

 21 20  0  0  0  0  0  0  0  0999 V2000
   -3.4172    0.2910   -0.5228 C   0  0  0  0  0  0  0  0  0  0  0  0
   -2.2305    0.0650    0.4137 C   0  0  0  0  0  0  0  0  0  0  0  0
   -0.8877    0.0031   -0.3171 C   0  0  0  0  0  0  0  0  0  0  0  0
    0.3078   -0.1987    0.6154 C   0  0  0  0  0  0  0  0  0  0  0  0
    1.6534   -0.2481   -0.1264 C   0  0  0  0  0  0  0  0  0  0  0  0
    2.8193   -0.4910    0.7831 C   0  0  0  0  0  0  0  0  0  0  0  0
    3.8552    0.3352    0.9505 C   0  0  0  0  0  0  0  0  0  0  0  0
   -4.3660    0.3320    0.0289 H   0  0  0  0  0  0  0  0  0  0  0  0
   -3.4984   -0.5163   -1.2650 H   0  0  0  0  0  0  0  0  0  0  0  0
   -3.3126    1.2362   -1.0751 H   0  0  0  0  0  0  0  0  0  0  0  0
   -2.3784   -0.8697    0.9791 H   0  0  0  0  0  0  0  0  0  0  0  0
   -2.1955    0.8701    1.1657 H   0  0  0  0  0  0  0  0  0  0  0  0
   -0.9141   -0.8125   -1.0602 H   0  0  0  0  0  0  0  0  0  0  0  0
   -0.7462    0.9326   -0.8950 H   0  0  0  0  0  0  0  0  0  0  0  0
    0.1735   -1.1315    1.1886 H   0  0  0  0  0  0  0  0  0  0  0  0
    0.3382    0.6136    1.3595 H   0  0  0  0  0  0  0  0  0  0  0  0
    1.6058   -1.0549   -0.8792 H   0  0  0  0  0  0  0  0  0  0  0  0
    1.8069    0.6903   -0.6825 H   0  0  0  0  0  0  0  0  0  0  0  0
    2.7904   -1.4235    1.3584 H   0  0  0  0  0  0  0  0  0  0  0  0
    3.9269    1.2767    0.4016 H   0  0  0  0  0  0  0  0  0  0  0  0
    4.6691    0.1005    1.6363 H   0  0  0  0  0  0  0  0  0  0  0  0
  1  8  1  0  0  0  0
  1  2  1  0  0  0  0
  2 11  1  0  0  0  0
  2 12  1  0  0  0  0
  3  2  1  0  0  0  0
  3  4  1  0  0  0  0
  4 15  1  0  0  0  0
  4 16  1  0  0  0  0
  5  4  1  0  0  0  0
  5  6  1  0  0  0  0
  6  7  2  0  0  0  0
  6 19  1  0  0  0  0
  7 21  1  0  0  0  0
  9  1  1  0  0  0  0
 10  1  1  0  0  0  0
 13  3  1  0  0  0  0
 14  3  1  0  0  0  0
 17  5  1  0  0  0  0
 18  5  1  0  0  0  0
 20  7  1  0  0  0  0
M  END
>  <Charge>
0.0

>  <InChI>
1/C7H14/c1-3-5-7-6-4-2/h3H,1,4-7H2,2H3

>  <Molecular Formula>
C_{7}H_{14}

>  <Name>
HEPT-1-ENE

>  <SMILES>
CCCCCC=C

>  <logK ((\xb1)-1,2-PROPANEDIOL)>
1.776

>  <logK (1,5-DIMETHYL-2-PYRROLIDINONE)>
2.725

>  <logK (1-ETHYL-2-PYRROLIDINONE)>
2.727

>  <logK (1-HEXADECENE)>
3.053

>  <logK (4-FORMYLMORPHOLINE)>
2.12

>  <logK (BUTYL ACETATE)>
3.14

>  <logK (DIMETHYLFORMAMIDE)>
2.46

>  <logK (ETHYL ACETATE)>
2.98

>  <logK (ETHYLENE GLYCOL)>
1.07

>  <logK (FORMAMIDE)>
0.91

>  <logK (HEPTANE)>
3.3

>  <logK (HEXADECANE)>
3.063

>  <logK (N-METHYLPYRROLIDONE)>
2.53

>  <logK (PENTANOL)>
2.88

>  <logK (PHENYLAMINE)>
2.376

>  <logK (PYRIDINE)>
3.037

>  <logK (SULFOLANE)>
1.899

>  <logK (TRIBUTYL PHOSPHATE)>
2.83

>  <mean polarizability>
13.84

>  <dipole moment>
0.508707342208

$$$$
158
 OpenBabel08101817183D

 18 18  0  0  0  0  0  0  0  0999 V2000
   -2.0278   -0.6641    0.1254 C   0  0  0  0  0  0  0  0  0  0  0  0
   -0.5272   -0.5160    0.0554 C   0  0  0  0  0  0  0  0  0  0  0  0
    0.2674   -1.6706    0.1003 C   0  0  0  0  0  0  0  0  0  0  0  0
    1.6578   -1.6072    0.0404 C   0  0  0  0  0  0  0  0  0  0  0  0
    2.2826   -0.3643   -0.0672 C   0  0  0  0  0  0  0  0  0  0  0  0
    1.5043    0.7910   -0.1129 C   0  0  0  0  0  0  0  0  0  0  0  0
    0.1035    0.7414   -0.0534 C   0  0  0  0  0  0  0  0  0  0  0  0
   -0.6850    2.0263   -0.1073 C   0  0  0  0  0  0  0  0  0  0  0  0
   -2.5517    0.2960    0.0826 H   0  0  0  0  0  0  0  0  0  0  0  0
   -2.3291   -1.1658    1.0566 H   0  0  0  0  0  0  0  0  0  0  0  0
   -2.3997   -1.2830   -0.7041 H   0  0  0  0  0  0  0  0  0  0  0  0
   -0.2235   -2.6427    0.1846 H   0  0  0  0  0  0  0  0  0  0  0  0
    2.2492   -2.5224    0.0776 H   0  0  0  0  0  0  0  0  0  0  0  0
    3.3695   -0.2938   -0.1154 H   0  0  0  0  0  0  0  0  0  0  0  0
    1.9918    1.7643   -0.1971 H   0  0  0  0  0  0  0  0  0  0  0  0
   -1.2990    2.1694    0.7940 H   0  0  0  0  0  0  0  0  0  0  0  0
   -0.0134    2.8893   -0.1917 H   0  0  0  0  0  0  0  0  0  0  0  0
   -1.3696    2.0521   -0.9677 H   0  0  0  0  0  0  0  0  0  0  0  0
  1 10  1  0  0  0  0
  2  3  1  0  0  0  0
  2  1  1  0  0  0  0
  3 12  1  0  0  0  0
  4 13  1  0  0  0  0
  4  3  2  0  0  0  0
  5  4  1  0  0  0  0
  6  5  2  0  0  0  0
  6  7  1  0  0  0  0
  7  2  2  0  0  0  0
  8  7  1  0  0  0  0
  8 16  1  0  0  0  0
  9  1  1  0  0  0  0
 11  1  1  0  0  0  0
 14  5  1  0  0  0  0
 15  6  1  0  0  0  0
 17  8  1  0  0  0  0
 18  8  1  0  0  0  0
M  END
>  <Charge>
0.0

>  <InChI>
1/C8H10/c1-7-5-3-4-6-8(7)2/h3-6H,1-2H3

>  <Molecular Formula>
C_{8}H_{10}

>  <Name>
O-XYLENE

>  <SMILES>
Cc1ccccc1C

>  <logK ((\xb1)-1,2-PROPANEDIOL)>
3.102

>  <logK (1-OCTANOL)>
3.9

>  <logK (2,2,4-TRIMETHYLPENTANE)>
4.03

>  <logK (2-ETHOXYETHANOL)>
3.961

>  <logK (2-ISOPROPOXYETHANOL)>
3.96043928758

>  <logK (2-PROPOXYETHANOL)>
3.98857382878

>  <logK (4-FORMYLMORPHOLINE)>
3.86

>  <logK (5,8,11,14-TETRAOXAOCTADECANE)>
4.147

>  <logK (BUTYL ACETATE)>
4.56

>  <logK (CARBON TETRACHLORIDE)>
4.53

>  <logK (CHLOROFORM)>
4.57

>  <logK (DICHLOROETHANE)>
4.49

>  <logK (DIETHYLENE GLYCOL DIBUTYL ETHER)>
4.182

>  <logK (ETHYLBENZOATE)>
4.263

>  <logK (ETHYLENE GLYCOL)>
2.67

>  <logK (FORMAMIDE)>
2.6

>  <logK (HEPTANE)>
4.04

>  <logK (HEXADECANE)>
3.937

>  <logK (METHOXYETHANOL)>
3.857

>  <logK (N-METHYLFORMAMIDE)>
3.68

>  <logK (O-XYLENE)>
4.363

>  <logK (PENTANOL)>
3.8

>  <logK (PHENYLAMINE)>
3.956

>  <logK (PROPYLENE CARBONATE)>
3.71

>  <logK (PYRIDINE)>
4.394

>  <logK (SULFOLANE)>
3.738

>  <logK (TETRAETHYLENE GLYCOL DIMETHYL ETHER)>
4.046

>  <logK (TOLUENE)>
4.485

>  <logK (TRIBUTYL PHOSPHATE)>
4.09

>  <experimental polarizability source>
@Article{Bosque2002, Title = {Polarizabilities of Solvents from the Chemical Composition}, Author = {Bosque, Ramon and Sales, Joaquim}, Journal = {Journal of Chemical Information and Computer Sciences}, Year = {2002}, Note = {PMID: 12377003}, Number = {5}, Pages = {1154-1163}, Volume = {42}, Doi = {10.1021/ci025528x}, Url = {https://doi.org/10.1021/ci025528x}}

>  <Formula>
C8H10

>  <dipole moment>
0.698993628933

>  <mean polarizability>
14.24

$$$$
159
 OpenBabel08101817183D

 21 21  0  0  0  0  0  0  0  0999 V2000
   -1.9419    0.5800   -0.4634 C   0  0  0  0  0  0  0  0  0  0  0  0
   -1.0096    0.1346    0.6703 C   0  0  0  0  0  0  0  0  0  0  0  0
   -0.4593   -1.2896    0.4540 C   0  0  0  0  0  0  0  0  0  0  0  0
    0.6062   -1.3617   -0.6474 C   0  0  0  0  0  0  0  0  0  0  0  0
    1.7499   -0.3766   -0.3799 C   0  0  0  0  0  0  0  0  0  0  0  0
    1.2216    1.0518   -0.2048 C   0  0  0  0  0  0  0  0  0  0  0  0
    0.1551    1.1200    0.8958 C   0  0  0  0  0  0  0  0  0  0  0  0
   -2.7866   -0.1154   -0.5709 H   0  0  0  0  0  0  0  0  0  0  0  0
   -2.3547    1.5786   -0.2606 H   0  0  0  0  0  0  0  0  0  0  0  0
   -1.4306    0.6276   -1.4345 H   0  0  0  0  0  0  0  0  0  0  0  0
   -1.6120    0.1189    1.5937 H   0  0  0  0  0  0  0  0  0  0  0  0
   -1.2879   -1.9795    0.2301 H   0  0  0  0  0  0  0  0  0  0  0  0
   -0.0101   -1.6390    1.3992 H   0  0  0  0  0  0  0  0  0  0  0  0
    0.1522   -1.1345   -1.6260 H   0  0  0  0  0  0  0  0  0  0  0  0
    0.9951   -2.3883   -0.7225 H   0  0  0  0  0  0  0  0  0  0  0  0
    2.2803   -0.6805    0.5395 H   0  0  0  0  0  0  0  0  0  0  0  0
    2.4894   -0.4159   -1.1937 H   0  0  0  0  0  0  0  0  0  0  0  0
    0.7991    1.4027   -1.1607 H   0  0  0  0  0  0  0  0  0  0  0  0
    2.0475    1.7385    0.0341 H   0  0  0  0  0  0  0  0  0  0  0  0
    0.6328    0.8828    1.8616 H   0  0  0  0  0  0  0  0  0  0  0  0
   -0.2361    2.1454    0.9861 H   0  0  0  0  0  0  0  0  0  0  0  0
  1  9  1  0  0  0  0
  1  2  1  0  0  0  0
  2  7  1  0  0  0  0
  2 11  1  0  0  0  0
  3  2  1  0  0  0  0
  3 13  1  0  0  0  0
  4  5  1  0  0  0  0
  4  3  1  0  0  0  0
  5  6  1  0  0  0  0
  5 16  1  0  0  0  0
  6 19  1  0  0  0  0
  6  7  1  0  0  0  0
  7 21  1  0  0  0  0
  7 20  1  0  0  0  0
  8  1  1  0  0  0  0
 10  1  1  0  0  0  0
 12  3  1  0  0  0  0
 14  4  1  0  0  0  0
 15  4  1  0  0  0  0
 17  5  1  0  0  0  0
 18  6  1  0  0  0  0
M  END
>  <Charge>
0.0

>  <InChI>
1/C7H14/c1-7-5-3-2-4-6-7/h7H,2-6H2,1H3

>  <Molecular Formula>
C_{7}H_{14}

>  <Name>
METHYLCYCLOHEXANE

>  <SMILES>
CC1CCCCC1

>  <logK ((\xb1)-1,2-PROPANEDIOL)>
1.967

>  <logK (1,4-DIOXANE)>
3.0

>  <logK (1-METHYL-2-PIPERIDINONE)>
2.73

>  <logK (1-OCTANOL)>
3.05

>  <logK (2-BUTOXYETHANOL)>
2.94

>  <logK (2-ETHOXYETHANOL)>
2.78

>  <logK (2-PROPOXYETHANOL)>
2.8895175142

>  <logK (4-FORMYLMORPHOLINE)>
2.16

>  <logK (ACETONE)>
2.88

>  <logK (ACETOPHENONE)>
2.88

>  <logK (BUTANONE)>
3.02

>  <logK (DECANE)>
3.35

>  <logK (DIMETHYLFORMAMIDE)>
2.57

>  <logK (ETHYLBENZENE)>
3.34

>  <logK (ETHYLBENZOATE)>
3.048

>  <logK (ETHYLENE GLYCOL)>
1.2

>  <logK (FORMAMIDE)>
1.04

>  <logK (HEPTAN-1-OL)>
3.05

>  <logK (HEPTANE)>
3.51

>  <logK (ISOPROPANOL)>
2.78

>  <logK (METHOXYETHANOL)>
2.546

>  <logK (METHYL TERT-BUTYL ETHER)>
3.52

>  <logK (METHYLCYCLOHEXANE)>
3.5

>  <logK (N,N-DIBUTYLFORMAMID)>
2.97

>  <logK (N,N-DIMETHYLACETAMIDE)>
2.7

>  <logK (N-METHYLACETAMIDE)>
2.63

>  <logK (N-METHYLFORMAMIDE)>
2.33

>  <logK (N-METHYLPYRROLIDONE)>
2.63

>  <logK (PHENYLAMINE)>
2.429

>  <logK (PROPYLENE CARBONATE)>
2.14

>  <logK (SULFOLANE)>
1.977

>  <logK (TETRAHYDROFURAN)>
3.42

>  <logK (TRIBUTYL PHOSPHATE)>
2.95

>  <Formula>
C7H14

>  <dipole moment>
0.0748779848021

>  <mean polarizability>
12.64

$$$$
160
 OpenBabel08101817183D

 14 13  0  0  0  0  0  0  0  0999 V2000
   -1.9321   -0.3978    0.1399 C   0  0  0  0  0  0  0  0  0  0  0  0
   -0.7138    0.2095   -0.5562 C   0  0  0  0  0  0  0  0  0  0  0  0
    0.6063   -0.1822    0.1222 C   0  0  0  0  0  0  0  0  0  0  0  0
    1.7985    0.4308   -0.5849 C   0  0  0  0  0  0  0  0  0  0  0  0
    3.5061   -0.0641    0.2770 Br  0  0  0  0  0  0  0  0  0  0  0  0
   -1.8822   -1.4957    0.1410 H   0  0  0  0  0  0  0  0  0  0  0  0
   -2.8651   -0.1063   -0.3600 H   0  0  0  0  0  0  0  0  0  0  0  0
   -1.9964   -0.0683    1.1865 H   0  0  0  0  0  0  0  0  0  0  0  0
   -0.8053    1.3074   -0.5715 H   0  0  0  0  0  0  0  0  0  0  0  0
   -0.6921   -0.1104   -1.6103 H   0  0  0  0  0  0  0  0  0  0  0  0
    0.7082   -1.2778    0.1331 H   0  0  0  0  0  0  0  0  0  0  0  0
    0.5950    0.1427    1.1735 H   0  0  0  0  0  0  0  0  0  0  0  0
    1.7791    1.5254   -0.5662 H   0  0  0  0  0  0  0  0  0  0  0  0
    1.8940    0.0867   -1.6199 H   0  0  0  0  0  0  0  0  0  0  0  0
  1  6  1  0  0  0  0
  1  8  1  0  0  0  0
  2  3  1  0  0  0  0
  2  1  1  0  0  0  0
  3 11  1  0  0  0  0
  3 12  1  0  0  0  0
  4 13  1  0  0  0  0
  4  3  1  0  0  0  0
  4  5  1  0  0  0  0
  7  1  1  0  0  0  0
  9  2  1  0  0  0  0
 10  2  1  0  0  0  0
 14  4  1  0  0  0  0
M  END
>  <Charge>
0.0

>  <InChI>
1/C4H9Br/c1-2-3-4-5/h2-4H2,1H3

>  <Molecular Formula>
C_{4}H_{9}Br

>  <Name>
1-BROMOBUTANE

>  <SMILES>
CCCCBr

>  <logK ((\xb1)-2-BUTANOL)>
3.07

>  <logK (1-HEXADECENE)>
3.06888586736

>  <logK (1-OCTANOL)>
3.09

>  <logK (CARBON TETRACHLORIDE)>
3.48

>  <logK (DECAN-1-OL)>
3.07

>  <logK (HEXADECANE)>
3.105

>  <logK (ISOBUTANOL)>
3.04

>  <logK (TERT-BUTANOL)>
3.0

>  <mean polarizability>
10.99

>  <dipole moment>
2.32173710336

$$$$
161
 OpenBabel08101817183D

 18 17  0  0  0  0  0  0  0  0999 V2000
   -1.7487   -1.1491    0.3459 C   0  0  0  0  0  0  0  0  0  0  0  0
   -0.5973   -0.3526   -0.2795 C   0  0  0  0  0  0  0  0  0  0  0  0
   -1.0700    1.0537   -0.6658 C   0  0  0  0  0  0  0  0  0  0  0  0
    0.6168   -0.3475    0.6672 C   0  0  0  0  0  0  0  0  0  0  0  0
    1.9538    0.0644    0.0663 C   0  0  0  0  0  0  0  0  0  0  0  0
    1.9806    1.4821   -0.1602 O   0  0  0  0  0  0  0  0  0  0  0  0
   -1.4515   -2.1833    0.5713 H   0  0  0  0  0  0  0  0  0  0  0  0
   -2.6174   -1.1855   -0.3263 H   0  0  0  0  0  0  0  0  0  0  0  0
   -2.0787   -0.6832    1.2872 H   0  0  0  0  0  0  0  0  0  0  0  0
   -0.2888   -0.8761   -1.2028 H   0  0  0  0  0  0  0  0  0  0  0  0
   -0.2726    1.6361   -1.1401 H   0  0  0  0  0  0  0  0  0  0  0  0
   -1.9247    0.9994   -1.3551 H   0  0  0  0  0  0  0  0  0  0  0  0
   -1.3973    1.6078    0.2273 H   0  0  0  0  0  0  0  0  0  0  0  0
    0.4085    0.2947    1.5397 H   0  0  0  0  0  0  0  0  0  0  0  0
    0.7530   -1.3683    1.0613 H   0  0  0  0  0  0  0  0  0  0  0  0
    2.7636   -0.2224    0.7613 H   0  0  0  0  0  0  0  0  0  0  0  0
    2.1185   -0.4822   -0.8820 H   0  0  0  0  0  0  0  0  0  0  0  0
    2.8520    1.7118   -0.5157 H   0  0  0  0  0  0  0  0  0  0  0  0
  1  7  1  0  0  0  0
  1  9  1  0  0  0  0
  2  1  1  0  0  0  0
  2  4  1  0  0  0  0
  3  2  1  0  0  0  0
  3 13  1  0  0  0  0
  4 15  1  0  0  0  0
  4 14  1  0  0  0  0
  5  4  1  0  0  0  0
  5 16  1  0  0  0  0
  6  5  1  0  0  0  0
  8  1  1  0  0  0  0
 10  2  1  0  0  0  0
 11  3  1  0  0  0  0
 12  3  1  0  0  0  0
 17  5  1  0  0  0  0
 18  6  1  0  0  0  0
M  END
>  <Charge>
0.0

>  <InChI>
1/C5H12O/c1-5(2)3-4-6/h5-6H,3-4H2,1-2H3

>  <Molecular Formula>
C_{5}H_{12}O

>  <Name>
3-METHYLBUTAN-1-OL

>  <SMILES>
CC(C)CCO

>  <logK (1-OCTANOL)>
4.52

>  <logK (3-METHYLBUTAN-1-OL)>
4.771

>  <logK (BROMOBENZENE)>
3.86

>  <logK (BUTYL ACETATE)>
4.24

>  <logK (CHLOROBENZENE)>
3.76

>  <logK (DECAN-1-OL)>
4.528

>  <logK (ETHYLBENZENE)>
3.58

>  <logK (HEPTANE)>
2.903

>  <logK (HEXADECANE)>
3.011

>  <logK (HEXANE)>
2.97

>  <logK (M-XYLENE)>
3.615

>  <logK (O-XYLENE)>
3.621

>  <logK (OCTANE)>
2.92

>  <logK (P-XYLENE)>
3.612

>  <logK (TOLUENE)>
3.667

>  <mean polarizability>
10.69

>  <dipole moment>
1.5777786641

>  <Formula>
C5H12O

$$$$
162
 OpenBabel08101817183D

 19 19  0  0  0  0  0  0  0  0999 V2000
   -1.5220   -0.2902   -0.5532 C   0  0  0  0  0  0  0  0  0  0  0  0
   -1.1063    1.1222   -0.1277 C   0  0  0  0  0  0  0  0  0  0  0  0
    0.4144    1.3109   -0.2151 C   0  0  0  0  0  0  0  0  0  0  0  0
    1.1638    0.2478    0.5921 C   0  0  0  0  0  0  0  0  0  0  0  0
    0.7480   -1.1617    0.1637 C   0  0  0  0  0  0  0  0  0  0  0  0
   -0.7718   -1.3566    0.2521 C   0  0  0  0  0  0  0  0  0  0  0  0
    2.5861    0.4311    0.5360 O   0  0  0  0  0  0  0  0  0  0  0  0
   -2.6085   -0.4192   -0.4383 H   0  0  0  0  0  0  0  0  0  0  0  0
   -1.3026   -0.4250   -1.6263 H   0  0  0  0  0  0  0  0  0  0  0  0
   -1.4333    1.2989    0.9111 H   0  0  0  0  0  0  0  0  0  0  0  0
   -1.6160    1.8770   -0.7443 H   0  0  0  0  0  0  0  0  0  0  0  0
    0.7106    2.3098    0.1360 H   0  0  0  0  0  0  0  0  0  0  0  0
    0.7323    1.2347   -1.2711 H   0  0  0  0  0  0  0  0  0  0  0  0
    0.9204    0.3786    1.6601 H   0  0  0  0  0  0  0  0  0  0  0  0
    1.0769   -1.3200   -0.8798 H   0  0  0  0  0  0  0  0  0  0  0  0
    1.2788   -1.9008    0.7810 H   0  0  0  0  0  0  0  0  0  0  0  0
   -1.0828   -1.2982    1.3091 H   0  0  0  0  0  0  0  0  0  0  0  0
   -1.0436   -2.3646   -0.0943 H   0  0  0  0  0  0  0  0  0  0  0  0
    2.8556    0.3253   -0.3910 H   0  0  0  0  0  0  0  0  0  0  0  0
  1  8  1  0  0  0  0
  1  2  1  0  0  0  0
  1  6  1  0  0  0  0
  2 10  1  0  0  0  0
  3  2  1  0  0  0  0
  3 12  1  0  0  0  0
  3  4  1  0  0  0  0
  4 14  1  0  0  0  0
  5  6  1  0  0  0  0
  5  4  1  0  0  0  0
  5 16  1  0  0  0  0
  6 17  1  0  0  0  0
  7  4  1  0  0  0  0
  9  1  1  0  0  0  0
 11  2  1  0  0  0  0
 13  3  1  0  0  0  0
 15  5  1  0  0  0  0
 18  6  1  0  0  0  0
 19  7  1  0  0  0  0
M  END
>  <Charge>
0.0

>  <InChI>
1/C6H12O/c7-6-4-2-1-3-5-6/h6-7H,1-5H2

>  <Molecular Formula>
C_{6}H_{12}O

>  <Name>
CYCLOHEXANOL

>  <SMILES>
C1CCC(CC1)O

>  <logK (1-OCTANOL)>
5.18

>  <logK (2,2,4-TRIMETHYLPENTANE)>
3.678

>  <logK (ACETONE)>
5.09

>  <logK (BROMOBENZENE)>
4.74

>  <logK (BUTYL ACETATE)>
5.18

>  <logK (CHLOROFORM)>
5.13

>  <logK (DECAN-1-OL)>
5.487

>  <logK (HEXADECANE)>
3.671

>  <mean polarizability>
11.67

>  <dipole moment>
1.80908727346

$$$$
163
 OpenBabel08101817183D

  9  8  0  0  0  0  0  0  0  0999 V2000
   -0.5722   -0.3812    0.1625 C   0  0  0  0  0  0  0  0  0  0  0  0
    0.8687    0.0986    0.1819 C   0  0  0  0  0  0  0  0  0  0  0  0
    1.7434   -0.2579   -1.3491 Cl  0  0  0  0  0  0  0  0  0  0  0  0
   -1.3962    0.2490   -0.8070 O   0  0  0  0  0  0  0  0  0  0  0  0
   -0.6064   -1.4540   -0.0679 H   0  0  0  0  0  0  0  0  0  0  0  0
   -0.9746   -0.2444    1.1861 H   0  0  0  0  0  0  0  0  0  0  0  0
    0.9279    1.1850    0.3304 H   0  0  0  0  0  0  0  0  0  0  0  0
    1.4200   -0.3973    0.9907 H   0  0  0  0  0  0  0  0  0  0  0  0
   -1.4107    1.2022   -0.6274 H   0  0  0  0  0  0  0  0  0  0  0  0
  1  2  1  0  0  0  0
  1  6  1  0  0  0  0
  2  7  1  0  0  0  0
  2  8  1  0  0  0  0
  3  2  1  0  0  0  0
  4  9  1  0  0  0  0
  4  1  1  0  0  0  0
  5  1  1  0  0  0  0
M  END
>  <Charge>
0.0

>  <InChI>
1/C2H5ClO/c3-1-2-4/h4H,1-2H2

>  <Molecular Formula>
C_{2}H_{5}ClO

>  <Name>
2-CHLOROETHANOL

>  <SMILES>
C(CCl)O

>  <logK (1-OCTANOL)>
4.3

>  <logK (BROMOBENZENE)>
3.52

>  <logK (CHLOROBENZENE)>
3.39

>  <logK (CHLOROFORM)>
4.2

>  <logK (DECAN-1-OL)>
4.2

>  <logK (ETHYLBENZENE)>
3.409

>  <logK (M-XYLENE)>
3.438

>  <logK (O-XYLENE)>
3.474

>  <logK (P-XYLENE)>
3.496

>  <logK (TOLUENE)>
3.42

>  <mean polarizability>
7.08

>  <dipole moment>
2.87001354603

$$$$
164
 OpenBabel08101817183D

 12 11  0  0  1  0  0  0  0  0999 V2000
   -0.1829   -0.3546    0.4290 C   0  0  0  0  0  0  0  0  0  0  0  0
   -1.5575   -0.2440   -0.2122 C   0  0  0  0  0  0  0  0  0  0  0  0
   -2.3337    1.3752   -0.0601 Cl  0  0  0  0  0  0  0  0  0  0  0  0
    0.9833    0.2248   -0.3576 C   0  0  2  0  0  0  0  0  0  0  0  0
    2.1519   -0.3689    0.1190 O   0  0  0  0  0  0  0  0  0  0  0  0
    1.0937    2.0535   -0.1922 Cl  0  0  0  0  0  0  0  0  0  0  0  0
   -0.1846    0.0564    1.4469 H   0  0  0  0  0  0  0  0  0  0  0  0
    0.0371   -1.4318    0.5179 H   0  0  0  0  0  0  0  0  0  0  0  0
   -1.5218   -0.4708   -1.2849 H   0  0  0  0  0  0  0  0  0  0  0  0
   -2.2475   -0.9456    0.2674 H   0  0  0  0  0  0  0  0  0  0  0  0
    0.8553    0.0834   -1.4421 H   0  0  0  0  0  0  0  0  0  0  0  0
    2.9067    0.0226   -0.3510 H   0  0  0  0  0  0  0  0  0  0  0  0
  1  8  1  0  0  0  0
  1  7  1  0  0  0  0
  2  3  1  0  0  0  0
  2 10  1  0  0  0  0
  2  1  1  0  0  0  0
  4 11  1  6  0  0  0
  4  6  1  0  0  0  0
  4  5  1  0  0  0  0
  4  1  1  0  0  0  0
  9  2  1  0  0  0  0
 12  5  1  0  0  0  0
M  END
>  <Charge>
0.0

>  <InChI>
1/C3H6Cl2O/c4-2-1-3(5)6/h3,6H,1-2H2

>  <Molecular Formula>
C_{3}H_{6}Cl_{2}O

>  <Name>
1,3-DICHLOROPROPANOL

>  <SMILES>
C(CCl)C(O)Cl

>  <logK (DECAN-1-OL)>
5.13

>  <mean polarizability>
10.94

>  <dipole moment>
2.963884482

$$$$
165
 OpenBabel08101817183D

 74 73  0  0  0  0  0  0  0  0999 V2000
   -9.3795    2.6098    1.8974 C   0  0  0  0  0  0  0  0  0  0  0  0
   -8.0493    1.9032    2.1670 C   0  0  0  0  0  0  0  0  0  0  0  0
   -7.4901    1.1218    0.9699 C   0  0  0  0  0  0  0  0  0  0  0  0
   -7.0555    1.9980   -0.2098 C   0  0  0  0  0  0  0  0  0  0  0  0
   -6.5088    1.2208   -1.4151 C   0  0  0  0  0  0  0  0  0  0  0  0
   -5.1856    0.4898   -1.1666 C   0  0  0  0  0  0  0  0  0  0  0  0
   -4.6506   -0.2078   -2.4204 C   0  0  0  0  0  0  0  0  0  0  0  0
   -3.3012   -0.9246   -2.2648 C   0  0  0  0  0  0  0  0  0  0  0  0
   -3.3065   -2.1092   -1.2740 C   0  0  0  0  0  0  0  0  0  0  0  0
   -2.8779   -1.7903    0.1754 C   0  0  0  0  0  0  0  0  0  0  0  0
   -1.3993   -2.0228    0.5328 C   0  0  0  0  0  0  0  0  0  0  0  0
   -0.3561   -1.1070   -0.1380 C   0  0  0  0  0  0  0  0  0  0  0  0
    0.1732   -1.5558   -1.5110 C   0  0  0  0  0  0  0  0  0  0  0  0
    1.0058   -2.8486   -1.5038 C   0  0  0  0  0  0  0  0  0  0  0  0
    2.3142   -2.8005   -0.7018 C   0  0  0  0  0  0  0  0  0  0  0  0
    3.3573   -1.8169   -1.2391 C   0  0  0  0  0  0  0  0  0  0  0  0
    4.6793   -1.8519   -0.4684 C   0  0  0  0  0  0  0  0  0  0  0  0
    5.7331   -0.8914   -1.0266 C   0  0  0  0  0  0  0  0  0  0  0  0
    7.0985   -0.9625   -0.3285 C   0  0  0  0  0  0  0  0  0  0  0  0
    7.1108   -0.5552    1.1538 C   0  0  0  0  0  0  0  0  0  0  0  0
    6.6701    0.8850    1.4553 C   0  0  0  0  0  0  0  0  0  0  0  0
    7.5696    1.9645    0.8444 C   0  0  0  0  0  0  0  0  0  0  0  0
    7.1611    3.4017    1.1965 C   0  0  0  0  0  0  0  0  0  0  0  0
    7.3479    3.7693    2.6702 C   0  0  0  0  0  0  0  0  0  0  0  0
   -9.7549    3.1079    2.8016 H   0  0  0  0  0  0  0  0  0  0  0  0
   -9.2884    3.3763    1.1160 H   0  0  0  0  0  0  0  0  0  0  0  0
  -10.1469    1.8928    1.5698 H   0  0  0  0  0  0  0  0  0  0  0  0
   -8.1788    1.2096    3.0123 H   0  0  0  0  0  0  0  0  0  0  0  0
   -7.2995    2.6421    2.4954 H   0  0  0  0  0  0  0  0  0  0  0  0
   -8.2498    0.3997    0.6225 H   0  0  0  0  0  0  0  0  0  0  0  0
   -6.6345    0.5206    1.3141 H   0  0  0  0  0  0  0  0  0  0  0  0
   -6.2906    2.7147    0.1369 H   0  0  0  0  0  0  0  0  0  0  0  0
   -7.9093    2.6059   -0.5470 H   0  0  0  0  0  0  0  0  0  0  0  0
   -7.2673    0.4926   -1.7511 H   0  0  0  0  0  0  0  0  0  0  0  0
   -6.3712    1.9205   -2.2561 H   0  0  0  0  0  0  0  0  0  0  0  0
   -5.3148   -0.2476   -0.3600 H   0  0  0  0  0  0  0  0  0  0  0  0
   -4.4359    1.2144   -0.8029 H   0  0  0  0  0  0  0  0  0  0  0  0
   -4.5612    0.5391   -3.2273 H   0  0  0  0  0  0  0  0  0  0  0  0
   -5.4006   -0.9389   -2.7694 H   0  0  0  0  0  0  0  0  0  0  0  0
   -2.5338   -0.1912   -1.9692 H   0  0  0  0  0  0  0  0  0  0  0  0
   -3.0011   -1.2864   -3.2607 H   0  0  0  0  0  0  0  0  0  0  0  0
   -2.6620   -2.9155   -1.6579 H   0  0  0  0  0  0  0  0  0  0  0  0
   -4.3230   -2.5356   -1.2629 H   0  0  0  0  0  0  0  0  0  0  0  0
   -3.1401   -0.7479    0.4165 H   0  0  0  0  0  0  0  0  0  0  0  0
   -3.4749   -2.4122    0.8614 H   0  0  0  0  0  0  0  0  0  0  0  0
   -1.3105   -1.8987    1.6236 H   0  0  0  0  0  0  0  0  0  0  0  0
   -1.1475   -3.0788    0.3400 H   0  0  0  0  0  0  0  0  0  0  0  0
   -0.7788   -0.0932   -0.2312 H   0  0  0  0  0  0  0  0  0  0  0  0
    0.5023   -0.9984    0.5441 H   0  0  0  0  0  0  0  0  0  0  0  0
   -0.6643   -1.6887   -2.2108 H   0  0  0  0  0  0  0  0  0  0  0  0
    0.7797   -0.7386   -1.9331 H   0  0  0  0  0  0  0  0  0  0  0  0
    0.3894   -3.6789   -1.1239 H   0  0  0  0  0  0  0  0  0  0  0  0
    1.2436   -3.1120   -2.5477 H   0  0  0  0  0  0  0  0  0  0  0  0
    2.7543   -3.8114   -0.6951 H   0  0  0  0  0  0  0  0  0  0  0  0
    2.1018   -2.5651    0.3543 H   0  0  0  0  0  0  0  0  0  0  0  0
    3.5503   -2.0405   -2.3029 H   0  0  0  0  0  0  0  0  0  0  0  0
    2.9568   -0.7900   -1.2150 H   0  0  0  0  0  0  0  0  0  0  0  0
    5.0828   -2.8794   -0.4844 H   0  0  0  0  0  0  0  0  0  0  0  0
    4.4815   -1.6220    0.5914 H   0  0  0  0  0  0  0  0  0  0  0  0
    5.3430    0.1393   -0.9868 H   0  0  0  0  0  0  0  0  0  0  0  0
    5.8779   -1.1112   -2.0973 H   0  0  0  0  0  0  0  0  0  0  0  0
    7.4814   -1.9936   -0.4070 H   0  0  0  0  0  0  0  0  0  0  0  0
    7.8145   -0.3379   -0.8853 H   0  0  0  0  0  0  0  0  0  0  0  0
    8.1315   -0.7008    1.5445 H   0  0  0  0  0  0  0  0  0  0  0  0
    6.4735   -1.2472    1.7268 H   0  0  0  0  0  0  0  0  0  0  0  0
    6.6388    1.0095    2.5489 H   0  0  0  0  0  0  0  0  0  0  0  0
    5.6346    1.0426    1.1085 H   0  0  0  0  0  0  0  0  0  0  0  0
    8.6113    1.7939    1.1696 H   0  0  0  0  0  0  0  0  0  0  0  0
    7.5734    1.8604   -0.2518 H   0  0  0  0  0  0  0  0  0  0  0  0
    6.1078    3.5572    0.9086 H   0  0  0  0  0  0  0  0  0  0  0  0
    7.7481    4.0984    0.5780 H   0  0  0  0  0  0  0  0  0  0  0  0
    8.3947    3.6326    2.9798 H   0  0  0  0  0  0  0  0  0  0  0  0
    7.0823    4.8193    2.8547 H   0  0  0  0  0  0  0  0  0  0  0  0
    6.7239    3.1530    3.3317 H   0  0  0  0  0  0  0  0  0  0  0  0
  1  2  1  0  0  0  0
  1 25  1  0  0  0  0
  2 29  1  0  0  0  0
  2 28  1  0  0  0  0
  3 31  1  0  0  0  0
  3  2  1  0  0  0  0
  4 32  1  0  0  0  0
  4  3  1  0  0  0  0
  5  6  1  0  0  0  0
  5  4  1  0  0  0  0
  6 37  1  0  0  0  0
  6 36  1  0  0  0  0
  7  8  1  0  0  0  0
  7  6  1  0  0  0  0
  8 40  1  0  0  0  0
  8  9  1  0  0  0  0
  9 43  1  0  0  0  0
  9 10  1  0  0  0  0
 10 44  1  0  0  0  0
 10 11  1  0  0  0  0
 10 45  1  0  0  0  0
 11 46  1  0  0  0  0
 12 11  1  0  0  0  0
 12 49  1  0  0  0  0
 13 14  1  0  0  0  0
 13 12  1  0  0  0  0
 14 52  1  0  0  0  0
 14 15  1  0  0  0  0
 15 54  1  0  0  0  0
 15 55  1  0  0  0  0
 16 57  1  0  0  0  0
 16 15  1  0  0  0  0
 16 17  1  0  0  0  0
 17 59  1  0  0  0  0
 18 60  1  0  0  0  0
 18 17  1  0  0  0  0
 18 19  1  0  0  0  0
 19 20  1  0  0  0  0
 20 21  1  0  0  0  0
 20 64  1  0  0  0  0
 20 65  1  0  0  0  0
 21 66  1  0  0  0  0
 22 68  1  0  0  0  0
 22 23  1  0  0  0  0
 22 21  1  0  0  0  0
 23 24  1  0  0  0  0
 24 73  1  0  0  0  0
 24 72  1  0  0  0  0
 24 74  1  0  0  0  0
 26  1  1  0  0  0  0
 27  1  1  0  0  0  0
 30  3  1  0  0  0  0
 33  4  1  0  0  0  0
 34  5  1  0  0  0  0
 35  5  1  0  0  0  0
 38  7  1  0  0  0  0
 39  7  1  0  0  0  0
 41  8  1  0  0  0  0
 42  9  1  0  0  0  0
 47 11  1  0  0  0  0
 48 12  1  0  0  0  0
 50 13  1  0  0  0  0
 51 13  1  0  0  0  0
 53 14  1  0  0  0  0
 56 16  1  0  0  0  0
 58 17  1  0  0  0  0
 61 18  1  0  0  0  0
 62 19  1  0  0  0  0
 63 19  1  0  0  0  0
 67 21  1  0  0  0  0
 69 22  1  0  0  0  0
 70 23  1  0  0  0  0
 71 23  1  0  0  0  0
M  END
>  <Charge>
0.0

>  <InChI>
1/C24H50/c1-3-5-7-9-11-13-15-17-19-21-23-24-22-20-18-16-14-12-10-8-6-4-2/h3-24H2,1-2H3

>  <Molecular Formula>
C_{24}H_{50}

>  <Name>
TETRACOSANE

>  <SMILES>
CCCCCCCCCCCCCCCCCCCCCCCC

>  <logK (DECAN-1-OL)>
11.167

>  <dipole moment>
0.0474280138958

$$$$
166
 OpenBabel08101817183D

 36 35  0  0  0  0  0  0  0  0999 V2000
   -5.2237   -0.9046   -0.6925 C   0  0  0  0  0  0  0  0  0  0  0  0
   -4.9323    0.0127    0.4969 C   0  0  0  0  0  0  0  0  0  0  0  0
   -3.4437    0.3186    0.7093 C   0  0  0  0  0  0  0  0  0  0  0  0
   -2.8039    1.1473   -0.4100 C   0  0  0  0  0  0  0  0  0  0  0  0
   -1.3584    1.5796   -0.1328 C   0  0  0  0  0  0  0  0  0  0  0  0
   -0.3436    0.4339   -0.0815 C   0  0  0  0  0  0  0  0  0  0  0  0
    1.0954    0.9109    0.1257 C   0  0  0  0  0  0  0  0  0  0  0  0
    2.1174   -0.2260    0.1910 C   0  0  0  0  0  0  0  0  0  0  0  0
    3.5544    0.2656    0.3841 C   0  0  0  0  0  0  0  0  0  0  0  0
    4.5923   -0.8531    0.5341 C   0  0  0  0  0  0  0  0  0  0  0  0
    4.8148   -1.7000   -0.7186 C   0  0  0  0  0  0  0  0  0  0  0  0
    5.2732   -0.9443   -1.8463 O   0  0  0  0  0  0  0  0  0  0  0  0
   -4.6918   -1.8623   -0.5913 H   0  0  0  0  0  0  0  0  0  0  0  0
   -6.2965   -1.1275   -0.7697 H   0  0  0  0  0  0  0  0  0  0  0  0
   -4.9137   -0.4533   -1.6446 H   0  0  0  0  0  0  0  0  0  0  0  0
   -5.3324   -0.4501    1.4126 H   0  0  0  0  0  0  0  0  0  0  0  0
   -5.4804    0.9616    0.3727 H   0  0  0  0  0  0  0  0  0  0  0  0
   -3.3242    0.8640    1.6606 H   0  0  0  0  0  0  0  0  0  0  0  0
   -2.8994   -0.6321    0.8329 H   0  0  0  0  0  0  0  0  0  0  0  0
   -2.8325    0.5860   -1.3581 H   0  0  0  0  0  0  0  0  0  0  0  0
   -3.4190    2.0485   -0.5719 H   0  0  0  0  0  0  0  0  0  0  0  0
   -1.0444    2.2923   -0.9132 H   0  0  0  0  0  0  0  0  0  0  0  0
   -1.3231    2.1384    0.8186 H   0  0  0  0  0  0  0  0  0  0  0  0
   -0.6082   -0.2683    0.7256 H   0  0  0  0  0  0  0  0  0  0  0  0
   -0.4038   -0.1445   -1.0198 H   0  0  0  0  0  0  0  0  0  0  0  0
    1.1519    1.5042    1.0547 H   0  0  0  0  0  0  0  0  0  0  0  0
    1.3712    1.6007   -0.6901 H   0  0  0  0  0  0  0  0  0  0  0  0
    1.8504   -0.9080    1.0172 H   0  0  0  0  0  0  0  0  0  0  0  0
    2.0455   -0.8226   -0.7328 H   0  0  0  0  0  0  0  0  0  0  0  0
    3.8372    0.9070   -0.4655 H   0  0  0  0  0  0  0  0  0  0  0  0
    3.5944    0.9060    1.2800 H   0  0  0  0  0  0  0  0  0  0  0  0
    5.5608   -0.4177    0.8360 H   0  0  0  0  0  0  0  0  0  0  0  0
    4.2984   -1.5302    1.3546 H   0  0  0  0  0  0  0  0  0  0  0  0
    3.8747   -2.1617   -1.0504 H   0  0  0  0  0  0  0  0  0  0  0  0
    5.5165   -2.5224   -0.4901 H   0  0  0  0  0  0  0  0  0  0  0  0
    6.1264   -0.5485   -1.6094 H   0  0  0  0  0  0  0  0  0  0  0  0
  1 13  1  0  0  0  0
  1  2  1  0  0  0  0
  2  3  1  0  0  0  0
  2 16  1  0  0  0  0
  3 19  1  0  0  0  0
  3 18  1  0  0  0  0
  4  5  1  0  0  0  0
  4  3  1  0  0  0  0
  5  6  1  0  0  0  0
  5 23  1  0  0  0  0
  6  7  1  0  0  0  0
  6 24  1  0  0  0  0
  7  8  1  0  0  0  0
  7 26  1  0  0  0  0
  8  9  1  0  0  0  0
  8 28  1  0  0  0  0
  9 10  1  0  0  0  0
  9 31  1  0  0  0  0
 10 32  1  0  0  0  0
 10 33  1  0  0  0  0
 11 35  1  0  0  0  0
 11 10  1  0  0  0  0
 12 36  1  0  0  0  0
 12 11  1  0  0  0  0
 14  1  1  0  0  0  0
 15  1  1  0  0  0  0
 17  2  1  0  0  0  0
 20  4  1  0  0  0  0
 21  4  1  0  0  0  0
 22  5  1  0  0  0  0
 25  6  1  0  0  0  0
 27  7  1  0  0  0  0
 29  8  1  0  0  0  0
 30  9  1  0  0  0  0
 34 11  1  0  0  0  0
M  END
>  <Charge>
0.0

>  <InChI>
1/C11H24O/c1-2-3-4-5-6-7-8-9-10-11-12/h12H,2-11H2,1H3

>  <Molecular Formula>
C_{11}H_{24}O

>  <Name>
UNDECANOL

>  <SMILES>
CCCCCCCCCCCO

>  <logK (DECAN-1-OL)>
7.53

>  <Formula>
C11H24O

>  <dipole moment>
1.56310833634

>  <mean polarizability>
22.17

$$$$
167
 OpenBabel08101817183D

 26 25  0  0  0  0  0  0  0  0999 V2000
   -2.9691   -1.2603    0.2158 C   0  0  0  0  0  0  0  0  0  0  0  0
   -1.9206   -0.3770   -0.4683 C   0  0  0  0  0  0  0  0  0  0  0  0
   -2.4008    1.0773   -0.5290 C   0  0  0  0  0  0  0  0  0  0  0  0
   -0.5568   -0.5185    0.2302 C   0  0  0  0  0  0  0  0  0  0  0  0
    0.6106    0.1637   -0.4886 C   0  0  0  0  0  0  0  0  0  0  0  0
    2.0030   -0.1664    0.0772 C   0  0  0  0  0  0  0  0  0  0  0  0
    3.1001    0.3974   -0.8318 C   0  0  0  0  0  0  0  0  0  0  0  0
    2.1864    0.3343    1.5142 C   0  0  0  0  0  0  0  0  0  0  0  0
   -3.9372   -1.2078   -0.3021 H   0  0  0  0  0  0  0  0  0  0  0  0
   -3.1309   -0.9389    1.2563 H   0  0  0  0  0  0  0  0  0  0  0  0
   -2.6540   -2.3133    0.2374 H   0  0  0  0  0  0  0  0  0  0  0  0
   -1.7986   -0.7374   -1.5060 H   0  0  0  0  0  0  0  0  0  0  0  0
   -1.7000    1.7239   -1.0735 H   0  0  0  0  0  0  0  0  0  0  0  0
   -2.5194    1.4890    0.4854 H   0  0  0  0  0  0  0  0  0  0  0  0
   -3.3759    1.1486   -1.0316 H   0  0  0  0  0  0  0  0  0  0  0  0
   -0.6504   -0.1325    1.2595 H   0  0  0  0  0  0  0  0  0  0  0  0
   -0.3279   -1.5938    0.3279 H   0  0  0  0  0  0  0  0  0  0  0  0
    0.5896   -0.1335   -1.5514 H   0  0  0  0  0  0  0  0  0  0  0  0
    0.4799    1.2591   -0.4763 H   0  0  0  0  0  0  0  0  0  0  0  0
    2.1029   -1.2670    0.0863 H   0  0  0  0  0  0  0  0  0  0  0  0
    3.0465    1.4963   -0.8724 H   0  0  0  0  0  0  0  0  0  0  0  0
    3.0020    0.0208   -1.8600 H   0  0  0  0  0  0  0  0  0  0  0  0
    4.1012    0.1273   -0.4670 H   0  0  0  0  0  0  0  0  0  0  0  0
    2.0764    1.4289    1.5605 H   0  0  0  0  0  0  0  0  0  0  0  0
    1.4544   -0.1058    2.2042 H   0  0  0  0  0  0  0  0  0  0  0  0
    3.1884    0.0858    1.8921 H   0  0  0  0  0  0  0  0  0  0  0  0
  1 11  1  0  0  0  0
  1 10  1  0  0  0  0
  2  1  1  0  0  0  0
  2  4  1  0  0  0  0
  3  2  1  0  0  0  0
  3 14  1  0  0  0  0
  4 17  1  0  0  0  0
  4 16  1  0  0  0  0
  5 19  1  0  0  0  0
  5  6  1  0  0  0  0
  5  4  1  0  0  0  0
  6 20  1  0  0  0  0
  6  8  1  0  0  0  0
  7 23  1  0  0  0  0
  7  6  1  0  0  0  0
  8 24  1  0  0  0  0
  8 26  1  0  0  0  0
  8 25  1  0  0  0  0
  9  1  1  0  0  0  0
 12  2  1  0  0  0  0
 13  3  1  0  0  0  0
 15  3  1  0  0  0  0
 18  5  1  0  0  0  0
 21  7  1  0  0  0  0
 22  7  1  0  0  0  0
M  END
>  <Charge>
0.0

>  <InChI>
1/C8H18/c1-7(2)5-6-8(3)4/h7-8H,5-6H2,1-4H3

>  <Molecular Formula>
C_{8}H_{18}

>  <Name>
2,5-DIMETHYLHEXANE

>  <SMILES>
CC(C)CCC(C)C

>  <logK (1,4-DIOXANE)>
2.92

>  <logK (2,2,4-TRIMETHYLPENTANE)>
3.54

>  <logK (ACETONE)>
2.95

>  <logK (ACETONITRILE)>
2.392

>  <logK (ACETOPHENONE)>
2.746

>  <logK (ANISOLE)>
3.069

>  <logK (BENZONITRILE)>
2.8104341181

>  <logK (BENZYL ALCOHOL)>
2.435

>  <logK (BUTANONE)>
3.14

>  <logK (BUTYL ACETATE)>
3.266

>  <logK (BUTYROLACTONE)>
2.078

>  <logK (BUTYRONITRILE)>
2.913

>  <logK (CARBON DISULFIDE)>
3.606

>  <logK (CARBON TETRACHLORIDE)>
3.658

>  <logK (CHLOROBENZENE)>
3.64

>  <logK (CHLOROFORM)>
3.564

>  <logK (CYCLOHEXANONE)>
3.063

>  <logK (DECANE)>
3.47

>  <logK (DICHLOROETHANE)>
3.1

>  <logK (DICHLOROMETHANE)>
3.399

>  <logK (DIMETHYL SULFOXIDE)>
1.747

>  <logK (DIMETHYLFORMAMIDE)>
2.45

>  <logK (DODECANE)>
3.39

>  <logK (ETHYL ACETATE)>
3.1562117389

>  <logK (HEPTANE)>
3.57

>  <logK (HEXANE)>
3.64

>  <logK (ISOPROPANOL)>
2.87

>  <logK (METHYL ACETATE)>
3.009

>  <logK (N,N-DIMETHYLACETAMIDE)>
2.58

>  <logK (N-METHYLFORMAMIDE)>
2.17

>  <logK (N-METHYLPYRROLIDONE)>
2.5

>  <logK (NITROBENZENE)>
2.699

>  <logK (NITROMETHANE)>
2.071

>  <logK (NONANE)>
3.51

>  <logK (OCTANE)>
3.54

>  <logK (P-XYLENE)>
3.472

>  <logK (PENTANE)>
3.66

>  <logK (PROPIONITRILE)>
2.754

>  <logK (PROPYLENE CARBONATE)>
1.94

>  <logK (PYRIDINE)>
2.96

>  <logK (TETRAHYDROFURAN)>
3.53

>  <logK (TOLUENE)>
3.476

>  <logK (TRIETHYLAMINE)>
3.583

>  <mean polarizability>
15.67

>  <dipole moment>
0.179372633634

$$$$
168
 OpenBabel08101817183D

  8  7  0  0  0  0  0  0  0  0999 V2000
    0.8520    0.0459    0.0041 C   0  0  0  0  0  0  0  0  0  0  0  0
   -0.6607   -0.0355   -0.0031 C   0  0  0  0  0  0  0  0  0  0  0  0
   -1.2038   -1.3823   -1.0597 Cl  0  0  0  0  0  0  0  0  0  0  0  0
   -1.2738   -0.3235    1.6601 Cl  0  0  0  0  0  0  0  0  0  0  0  0
   -1.3610    1.4993   -0.6187 Cl  0  0  0  0  0  0  0  0  0  0  0  0
    1.1694    0.8709    0.6520 H   0  0  0  0  0  0  0  0  0  0  0  0
    1.2657   -0.8963    0.3815 H   0  0  0  0  0  0  0  0  0  0  0  0
    1.2123    0.2216   -1.0159 H   0  0  0  0  0  0  0  0  0  0  0  0
  1  7  1  0  0  0  0
  1  6  1  0  0  0  0
  2  1  1  0  0  0  0
  2  4  1  0  0  0  0
  3  2  1  0  0  0  0
  5  2  1  0  0  0  0
  8  1  1  0  0  0  0
M  END
>  <Charge>
0.0

>  <InChI>
1/C2H3Cl3/c1-2(3,4)5/h1H3

>  <Molecular Formula>
C_{2}H_{3}Cl_{3}

>  <Name>
1,1,1-TRICHLOROETHANE

>  <SMILES>
CC(Cl)(Cl)Cl

>  <logK (1-CHLOROBUTANE)>
3.174

>  <logK (1-OCTANOL)>
2.7

>  <logK (4-METHYLPENTAN-2-ONE)>
3.134

>  <logK (5,8,11,14-TETRAOXAOCTADECANE)>
3.007

>  <logK (ACETONE)>
3.1

>  <logK (CARBON TETRACHLORIDE)>
3.11

>  <logK (CHLOROFORM)>
3.24

>  <logK (DIBUTYL ETHER)>
2.99

>  <logK (DICHLOROETHANE)>
3.11

>  <logK (DIETHYL ETHER)>
3.03

>  <logK (DIETHYLENE GLYCOL DIBUTYL ETHER)>
3.008

>  <logK (HEXADECANE)>
2.69

>  <logK (ISOPROPANOL)>
2.61

>  <logK (TETRAETHYLENE GLYCOL DIMETHYL ETHER)>
2.915

>  <logK (TETRAHYDROFURAN)>
3.19

>  <logK (UNDECANE)>
2.63

>  <mean polarizability>
10.45

>  <dipole moment>
1.79977389119

$$$$
169
 OpenBabel08101817183D

 15 14  0  0  0  0  0  0  0  0999 V2000
    1.5878    0.7612   -0.7059 C   0  0  0  0  0  0  0  0  0  0  0  0
    1.2633   -0.7149   -0.6448 C   0  0  0  0  0  0  0  0  0  0  0  0
    2.1033   -1.5708   -0.8360 O   0  0  0  0  0  0  0  0  0  0  0  0
   -0.1948   -1.1008   -0.3381 C   0  0  0  0  0  0  0  0  0  0  0  0
   -0.7367   -0.4677    0.9478 C   0  0  0  0  0  0  0  0  0  0  0  0
   -0.4023   -0.8994    2.0355 O   0  0  0  0  0  0  0  0  0  0  0  0
   -1.7039    0.6869    0.8006 C   0  0  0  0  0  0  0  0  0  0  0  0
    2.6213    0.9025   -1.0360 H   0  0  0  0  0  0  0  0  0  0  0  0
    1.4626    1.2092    0.2919 H   0  0  0  0  0  0  0  0  0  0  0  0
    0.9017    1.2878   -1.3847 H   0  0  0  0  0  0  0  0  0  0  0  0
   -0.2213   -2.1907   -0.2332 H   0  0  0  0  0  0  0  0  0  0  0  0
   -0.8079   -0.7984   -1.2012 H   0  0  0  0  0  0  0  0  0  0  0  0
   -1.9133    1.1368    1.7758 H   0  0  0  0  0  0  0  0  0  0  0  0
   -1.3170    1.4455    0.1052 H   0  0  0  0  0  0  0  0  0  0  0  0
   -2.6425    0.3129    0.3628 H   0  0  0  0  0  0  0  0  0  0  0  0
  1  2  1  0  0  0  0
  1  9  1  0  0  0  0
  2  4  1  0  0  0  0
  3  2  2  0  0  0  0
  4 11  1  0  0  0  0
  4  5  1  0  0  0  0
  5  6  2  0  0  0  0
  7  5  1  0  0  0  0
  7 13  1  0  0  0  0
  8  1  1  0  0  0  0
 10  1  1  0  0  0  0
 12  4  1  0  0  0  0
 14  7  1  0  0  0  0
 15  7  1  0  0  0  0
M  END
>  <Charge>
0.0

>  <InChI>
1/C5H8O2/c1-4(6)3-5(2)7/h3H2,1-2H3

>  <Molecular Formula>
C_{5}H_{8}O_{2}

>  <Name>
2,4-PENTANDIONE

>  <SMILES>
CC(=O)CC(=O)C

>  <logK (BROMOBENZENE)>
4.33

>  <logK (CARBON TETRACHLORIDE)>
4.048

>  <logK (CHLOROBENZENE)>
4.3

>  <logK (DODECANE)>
3.39

>  <logK (IODOBENZENE)>
4.33

>  <logK (ISOPROPANOL)>
3.69

>  <mean polarizability>
10.6

>  <dipole moment>
4.51439233142

$$$$
170
 OpenBabel08101817183D

 11 10  0  0  0  0  0  0  0  0999 V2000
   -1.1922    0.7009   -0.2096 C   0  0  0  0  0  0  0  0  0  0  0  0
   -0.3689   -0.5508   -0.4462 C   0  0  0  0  0  0  0  0  0  0  0  0
    1.0523   -0.2349   -0.5492 O   0  0  0  0  0  0  0  0  0  0  0  0
    1.7446   -0.2252    0.6080 C   0  0  0  0  0  0  0  0  0  0  0  0
    1.3098   -0.4569    1.7120 O   0  0  0  0  0  0  0  0  0  0  0  0
   -2.2604    0.4443   -0.2122 H   0  0  0  0  0  0  0  0  0  0  0  0
   -0.9523    1.1507    0.7614 H   0  0  0  0  0  0  0  0  0  0  0  0
   -1.0165    1.4425   -0.9992 H   0  0  0  0  0  0  0  0  0  0  0  0
   -0.5060   -1.2806    0.3613 H   0  0  0  0  0  0  0  0  0  0  0  0
   -0.6086   -1.0182   -1.4084 H   0  0  0  0  0  0  0  0  0  0  0  0
    2.7982    0.0283    0.3822 H   0  0  0  0  0  0  0  0  0  0  0  0
  1  7  1  0  0  0  0
  2  1  1  0  0  0  0
  2  9  1  0  0  0  0
  3  2  1  0  0  0  0
  3  4  1  0  0  0  0
  4  5  2  0  0  0  0
  6  1  1  0  0  0  0
  8  1  1  0  0  0  0
 10  2  1  0  0  0  0
 11  4  1  0  0  0  0
M  END
>  <Charge>
0.0

>  <InChI>
1/C3H6O2/c1-2-5-3-4/h3H,2H2,1H3

>  <Molecular Formula>
C_{3}H_{6}O_{2}

>  <Name>
ETHYL FORMATE

>  <SMILES>
CCOC=O

>  <logK (1-HEXADECENE)>
1.9187141842

>  <logK (1-OCTANOL)>
2.19

>  <logK (BUTANONE)>
2.72

>  <logK (CARBON TETRACHLORIDE)>
2.436

>  <logK (CHLOROFORM)>
3.197

>  <logK (DIIODOMETHANE)>
2.19

>  <logK (HEXADECANE)>
1.901

>  <logK (ISOPROPANOL)>
2.31

>  <mean polarizability>
7.06

>  <dipole moment>
2.01399562242

$$$$
171
 OpenBabel08101817183D

 21 22  0  0  1  0  0  0  0  0999 V2000
   -1.0996    0.5574   -1.5396 C   0  0  0  0  0  0  0  0  0  0  0  0
   -0.8362   -0.8513   -1.5668 C   0  0  0  0  0  0  0  0  0  0  0  0
    0.5850   -1.0364   -1.5535 C   0  0  1  0  0  0  0  0  0  0  0  0
    1.2000    0.2577   -1.5185 C   0  0  0  0  0  0  0  0  0  0  0  0
    0.1589    1.2428   -1.5098 C   0  0  0  0  0  0  0  0  0  0  0  0
    0.1225    1.1722    1.7571 C   0  0  0  0  0  0  0  0  0  0  0  0
   -1.1373    0.4893    1.7269 C   0  0  2  0  0  0  0  0  0  0  0  0
   -0.8766   -0.9198    1.7007 C   0  0  0  0  0  0  0  0  0  0  0  0
    0.5441   -1.1078    1.7146 C   0  0  0  0  0  0  0  0  0  0  0  0
    1.1616    0.1850    1.7494 C   0  0  0  0  0  0  0  0  0  0  0  0
   -0.0173   -0.0013    0.0960 Fe  0  0  0  0  0  0  0  0  0  0  0  0
   -2.0804    1.0231   -1.5230 H   0  0  0  0  0  0  0  0  0  0  0  0
   -1.5824   -1.6401   -1.5754 H   0  0  0  0  0  0  0  0  0  0  0  0
    1.1043   -1.9901   -1.5498 H   0  0  0  0  0  0  0  0  0  0  0  0
    2.2670    0.4563   -1.4843 H   0  0  0  0  0  0  0  0  0  0  0  0
    0.2988    2.3187   -1.4672 H   0  0  0  0  0  0  0  0  0  0  0  0
    0.2647    2.2487    1.7635 H   0  0  0  0  0  0  0  0  0  0  0  0
   -2.1169    0.9573    1.7063 H   0  0  0  0  0  0  0  0  0  0  0  0
   -1.6238   -1.7066    1.6570 H   0  0  0  0  0  0  0  0  0  0  0  0
    1.0621   -2.0616    1.6836 H   0  0  0  0  0  0  0  0  0  0  0  0
    2.2293    0.3827    1.7492 H   0  0  0  0  0  0  0  0  0  0  0  0
  1 12  1  0  0  0  0
  1  5  1  0  0  0  0
  2  3  1  0  0  0  0
  2  1  2  0  0  0  0
  3 14  1  6  0  0  0
  3  4  1  0  0  0  0
  3 11  1  0  0  0  0
  4  5  2  0  0  0  0
  4 15  1  0  0  0  0
  5 16  1  0  0  0  0
  6 17  1  0  0  0  0
  7 18  1  6  0  0  0
  7  6  1  0  0  0  0
  8  9  1  0  0  0  0
  8  7  1  0  0  0  0
  9 10  2  0  0  0  0
 10  6  1  0  0  0  0
 11  7  1  0  0  0  0
 13  2  1  0  0  0  0
 19  8  1  0  0  0  0
 20  9  1  0  0  0  0
 21 10  1  0  0  0  0
M  RAD  2   6   2   8   2
M  END
>  <Charge>
0.0

>  <InChI>
1/2C5H5.Fe/c2*1-2-4-5-3-1;/h2*1-5H;/q2*-1;+2

>  <Molecular Formula>
C_{10}H_{10}Fe

>  <Name>
FERROCENE

>  <SMILES>
[cH-]1cccc1.[cH-]1cccc1.[Fe+2]

>  <logK (ISOBUTANOL)>
5.4

>  <logK (ISOPROPANOL)>
5.35

>  <logK (TERT-BUTANOL)>
5.38

>  <mean polarizability>
18.74

>  <dipole moment>
0.00176358741632

$$$$
172
 OpenBabel08101817183D

 26 27  0  0  0  0  0  0  0  0999 V2000
    4.7071   -0.4937    0.1209 C   0  0  0  0  0  0  0  0  0  0  0  0
    4.2624    0.8271    0.0465 C   0  0  0  0  0  0  0  0  0  0  0  0
    2.8988    1.1016   -0.0339 C   0  0  0  0  0  0  0  0  0  0  0  0
    1.9406    0.0682   -0.0427 C   0  0  0  0  0  0  0  0  0  0  0  0
    2.4104   -1.2595    0.0340 C   0  0  0  0  0  0  0  0  0  0  0  0
    3.7714   -1.5340    0.1141 C   0  0  0  0  0  0  0  0  0  0  0  0
    0.5271    0.4232   -0.1288 C   0  0  0  0  0  0  0  0  0  0  0  0
   -0.5271   -0.4232   -0.1512 C   0  0  0  0  0  0  0  0  0  0  0  0
   -1.9406   -0.0682   -0.2374 C   0  0  0  0  0  0  0  0  0  0  0  0
   -2.8988   -1.1016   -0.2461 C   0  0  0  0  0  0  0  0  0  0  0  0
   -4.2624   -0.8270   -0.3265 C   0  0  0  0  0  0  0  0  0  0  0  0
   -4.7071    0.4937   -0.4009 C   0  0  0  0  0  0  0  0  0  0  0  0
   -3.7714    1.5340   -0.3941 C   0  0  0  0  0  0  0  0  0  0  0  0
   -2.4104    1.2595   -0.3140 C   0  0  0  0  0  0  0  0  0  0  0  0
    5.7729   -0.7126    0.1831 H   0  0  0  0  0  0  0  0  0  0  0  0
    4.9816    1.6465    0.0521 H   0  0  0  0  0  0  0  0  0  0  0  0
    2.5574    2.1368   -0.0911 H   0  0  0  0  0  0  0  0  0  0  0  0
    1.7023   -2.0880    0.0309 H   0  0  0  0  0  0  0  0  0  0  0  0
    4.1088   -2.5693    0.1720 H   0  0  0  0  0  0  0  0  0  0  0  0
    0.3370    1.4990   -0.1787 H   0  0  0  0  0  0  0  0  0  0  0  0
   -0.3370   -1.4990   -0.1014 H   0  0  0  0  0  0  0  0  0  0  0  0
   -2.5574   -2.1368   -0.1889 H   0  0  0  0  0  0  0  0  0  0  0  0
   -4.9815   -1.6466   -0.3320 H   0  0  0  0  0  0  0  0  0  0  0  0
   -5.7730    0.7126   -0.4630 H   0  0  0  0  0  0  0  0  0  0  0  0
   -4.1088    2.5693   -0.4520 H   0  0  0  0  0  0  0  0  0  0  0  0
   -1.7023    2.0880   -0.3109 H   0  0  0  0  0  0  0  0  0  0  0  0
  1 15  1  0  0  0  0
  2 16  1  0  0  0  0
  2  1  2  0  0  0  0
  3  2  1  0  0  0  0
  4  3  2  0  0  0  0
  4  5  1  0  0  0  0
  5  6  2  0  0  0  0
  6  1  1  0  0  0  0
  6 19  1  0  0  0  0
  7  4  1  0  0  0  0
  8  7  2  0  0  0  0
  8 21  1  0  0  0  0
  9  8  1  0  0  0  0
 10  9  1  0  0  0  0
 10 22  1  0  0  0  0
 11 10  2  0  0  0  0
 12 13  2  0  0  0  0
 12 11  1  0  0  0  0
 13 14  1  0  0  0  0
 14 26  1  0  0  0  0
 14  9  2  0  0  0  0
 17  3  1  0  0  0  0
 18  5  1  0  0  0  0
 20  7  1  0  0  0  0
 23 11  1  0  0  0  0
 24 12  1  0  0  0  0
 25 13  1  0  0  0  0
M  END
>  <Charge>
0.0

>  <InChI>
1/C14H12/c1-3-7-13(8-4-1)11-12-14-9-5-2-6-10-14/h1-12H/b12-11+

>  <Molecular Formula>
C_{14}H_{12}

>  <Name>
TRANS-STILBENE

>  <SMILES>
c1ccc(cc1)/C=C/c2ccccc2

>  <logK (ISOPROPANOL)>
7.14

>  <dipole moment>
0.000157289379054

>  <mean polarizability>
29.76

$$$$
173
 OpenBabel08101817183D

 14 14  0  0  0  0  0  0  0  0999 V2000
    2.2232   -0.1598   -0.0361 C   0  0  0  0  0  0  0  0  0  0  0  0
    0.7201   -0.1229   -0.0200 C   0  0  0  0  0  0  0  0  0  0  0  0
    0.0153    1.0802    0.1268 C   0  0  0  0  0  0  0  0  0  0  0  0
   -1.3781    1.0594    0.1353 C   0  0  0  0  0  0  0  0  0  0  0  0
   -2.0313   -0.1637   -0.0034 C   0  0  0  0  0  0  0  0  0  0  0  0
   -1.2487   -1.3110   -0.1443 C   0  0  0  0  0  0  0  0  0  0  0  0
    0.0897   -1.3054   -0.1541 N   0  0  0  0  0  0  0  0  0  0  0  0
    2.6575    0.8404    0.0780 H   0  0  0  0  0  0  0  0  0  0  0  0
    2.5823   -0.5964   -0.9781 H   0  0  0  0  0  0  0  0  0  0  0  0
    2.5960   -0.8022    0.7733 H   0  0  0  0  0  0  0  0  0  0  0  0
    0.5584    2.0196    0.2330 H   0  0  0  0  0  0  0  0  0  0  0  0
   -1.9440    1.9846    0.2484 H   0  0  0  0  0  0  0  0  0  0  0  0
   -3.1186   -0.2321   -0.0030 H   0  0  0  0  0  0  0  0  0  0  0  0
   -1.7218   -2.2906   -0.2558 H   0  0  0  0  0  0  0  0  0  0  0  0
  1  2  1  0  0  0  0
  1  8  1  0  0  0  0
  1 10  1  0  0  0  0
  2  3  2  0  0  0  0
  3  4  1  0  0  0  0
  3 11  1  0  0  0  0
  4 12  1  0  0  0  0
  5 13  1  0  0  0  0
  5  4  2  0  0  0  0
  6  5  1  0  0  0  0
  7  6  2  0  0  0  0
  7  2  1  0  0  0  0
  9  1  1  0  0  0  0
 14  6  1  0  0  0  0
M  END
>  <Charge>
0.0

>  <InChI>
1/C6H7N/c1-6-4-2-3-5-7-6/h2-5H,1H3

>  <Molecular Formula>
C_{6}H_{7}N

>  <Name>
2-PICOLINE

>  <SMILES>
Cc1ccccn1

>  <logK ((\xb1)-2-BUTANOL)>
4.4

>  <logK (2,2,4-TRIMETHYLPENTANE)>
3.44

>  <logK (CHLOROFORM)>
5.06

>  <logK (ETHYL ACETATE)>
4.16

>  <logK (HEXADECANE)>
3.437

>  <logK (ISOBUTANOL)>
4.54

>  <logK (ISOPROPANOL)>
4.31

>  <logK (TERT-BUTANOL)>
4.33

>  <mean polarizability>
11.56

>  <dipole moment>
1.83268575344

>  <experimental polarizability source>
@Article{Bosque2002, Title = {Polarizabilities of Solvents from the Chemical Composition}, Author = {Bosque, Ramon and Sales, Joaquim}, Journal = {Journal of Chemical Information and Computer Sciences}, Year = {2002}, Note = {PMID: 12377003}, Number = {5}, Pages = {1154-1163}, Volume = {42}, Doi = {10.1021/ci025528x}, Url = {https://doi.org/10.1021/ci025528x}}

>  <Formula>
C6H7N

$$$$
174
 OpenBabel08101817183D

 71 70  0  0  0  0  0  0  0  0999 V2000
    9.3188    1.9713   -1.2404 C   0  0  0  0  0  0  0  0  0  0  0  0
    8.5837    0.6302   -1.1847 C   0  0  0  0  0  0  0  0  0  0  0  0
    7.5741    0.5037   -0.0352 C   0  0  0  0  0  0  0  0  0  0  0  0
    8.2064    0.4844    1.3591 C   0  0  0  0  0  0  0  0  0  0  0  0
    7.2186    0.3737    2.5305 C   0  0  0  0  0  0  0  0  0  0  0  0
    6.3848   -0.9238    2.5761 C   0  0  0  0  0  0  0  0  0  0  0  0
    4.9776   -0.8143    1.9771 C   0  0  0  0  0  0  0  0  0  0  0  0
    4.2102   -2.1388    2.0115 C   0  0  0  0  0  0  0  0  0  0  0  0
    2.7499   -2.0510    1.5492 C   0  0  0  0  0  0  0  0  0  0  0  0
    2.5719   -1.6857    0.0711 C   0  0  0  0  0  0  0  0  0  0  0  0
    1.1257   -1.7730   -0.4364 C   0  0  0  0  0  0  0  0  0  0  0  0
    0.1704   -0.7490    0.1861 C   0  0  0  0  0  0  0  0  0  0  0  0
   -1.2775   -0.8368   -0.3183 C   0  0  0  0  0  0  0  0  0  0  0  0
   -1.4664   -0.4553   -1.7904 C   0  0  0  0  0  0  0  0  0  0  0  0
   -2.9134   -0.5563   -2.2922 C   0  0  0  0  0  0  0  0  0  0  0  0
   -3.8752    0.4877   -1.7167 C   0  0  0  0  0  0  0  0  0  0  0  0
   -5.2950    0.3574   -2.2760 C   0  0  0  0  0  0  0  0  0  0  0  0
   -6.2623    1.4710   -1.8501 C   0  0  0  0  0  0  0  0  0  0  0  0
   -6.5328    1.5836   -0.3415 C   0  0  0  0  0  0  0  0  0  0  0  0
   -7.1313    0.3333    0.3213 C   0  0  0  0  0  0  0  0  0  0  0  0
   -8.4826   -0.1340   -0.2418 C   0  0  0  0  0  0  0  0  0  0  0  0
   -9.6304    0.8817   -0.1477 C   0  0  0  0  0  0  0  0  0  0  0  0
  -10.0009    1.2829    1.2815 C   0  0  0  0  0  0  0  0  0  0  0  0
    8.6085    2.8069   -1.3256 H   0  0  0  0  0  0  0  0  0  0  0  0
    9.9919    2.0191   -2.1070 H   0  0  0  0  0  0  0  0  0  0  0  0
    9.9288    2.1447   -0.3439 H   0  0  0  0  0  0  0  0  0  0  0  0
    8.0539    0.4740   -2.1371 H   0  0  0  0  0  0  0  0  0  0  0  0
    9.3178   -0.1892   -1.1096 H   0  0  0  0  0  0  0  0  0  0  0  0
    6.9939   -0.4202   -0.1833 H   0  0  0  0  0  0  0  0  0  0  0  0
    6.8487    1.3338   -0.0959 H   0  0  0  0  0  0  0  0  0  0  0  0
    8.8081    1.3960    1.5014 H   0  0  0  0  0  0  0  0  0  0  0  0
    8.9174   -0.3587    1.4141 H   0  0  0  0  0  0  0  0  0  0  0  0
    6.5389    1.2428    2.5184 H   0  0  0  0  0  0  0  0  0  0  0  0
    7.7968    0.4627    3.4629 H   0  0  0  0  0  0  0  0  0  0  0  0
    6.2822   -1.2549    3.6221 H   0  0  0  0  0  0  0  0  0  0  0  0
    6.9380   -1.7307    2.0648 H   0  0  0  0  0  0  0  0  0  0  0  0
    5.0399   -0.4421    0.9435 H   0  0  0  0  0  0  0  0  0  0  0  0
    4.4100   -0.0521    2.5391 H   0  0  0  0  0  0  0  0  0  0  0  0
    4.2329   -2.5322    3.0415 H   0  0  0  0  0  0  0  0  0  0  0  0
    4.7429   -2.8823    1.3932 H   0  0  0  0  0  0  0  0  0  0  0  0
    2.2618   -3.0234    1.7301 H   0  0  0  0  0  0  0  0  0  0  0  0
    2.2200   -1.3222    2.1840 H   0  0  0  0  0  0  0  0  0  0  0  0
    3.2003   -2.3608   -0.5338 H   0  0  0  0  0  0  0  0  0  0  0  0
    2.9548   -0.6688   -0.1144 H   0  0  0  0  0  0  0  0  0  0  0  0
    1.1330   -1.6500   -1.5302 H   0  0  0  0  0  0  0  0  0  0  0  0
    0.7368   -2.7889   -0.2471 H   0  0  0  0  0  0  0  0  0  0  0  0
    0.5592    0.2674   -0.0005 H   0  0  0  0  0  0  0  0  0  0  0  0
    0.1651   -0.8749    1.2795 H   0  0  0  0  0  0  0  0  0  0  0  0
   -1.9056   -0.1868    0.3104 H   0  0  0  0  0  0  0  0  0  0  0  0
   -1.6527   -1.8635   -0.1627 H   0  0  0  0  0  0  0  0  0  0  0  0
   -0.8353   -1.1021   -2.4186 H   0  0  0  0  0  0  0  0  0  0  0  0
   -1.0976    0.5733   -1.9476 H   0  0  0  0  0  0  0  0  0  0  0  0
   -2.9165   -0.4637   -3.3907 H   0  0  0  0  0  0  0  0  0  0  0  0
   -3.3007   -1.5670   -2.0754 H   0  0  0  0  0  0  0  0  0  0  0  0
   -3.4871    1.4968   -1.9414 H   0  0  0  0  0  0  0  0  0  0  0  0
   -3.9001    0.4088   -0.6190 H   0  0  0  0  0  0  0  0  0  0  0  0
   -5.7054   -0.6264   -1.9932 H   0  0  0  0  0  0  0  0  0  0  0  0
   -5.2412    0.3486   -3.3774 H   0  0  0  0  0  0  0  0  0  0  0  0
   -7.2164    1.3308   -2.3828 H   0  0  0  0  0  0  0  0  0  0  0  0
   -5.8651    2.4373   -2.2031 H   0  0  0  0  0  0  0  0  0  0  0  0
   -5.5967    1.8388    0.1799 H   0  0  0  0  0  0  0  0  0  0  0  0
   -7.2018    2.4428   -0.1743 H   0  0  0  0  0  0  0  0  0  0  0  0
   -6.4162   -0.5011    0.2416 H   0  0  0  0  0  0  0  0  0  0  0  0
   -7.2317    0.5272    1.4009 H   0  0  0  0  0  0  0  0  0  0  0  0
   -8.3574   -0.4289   -1.2956 H   0  0  0  0  0  0  0  0  0  0  0  0
   -8.7807   -1.0523    0.2912 H   0  0  0  0  0  0  0  0  0  0  0  0
   -9.3802    1.7838   -0.7285 H   0  0  0  0  0  0  0  0  0  0  0  0
  -10.5151    0.4485   -0.6399 H   0  0  0  0  0  0  0  0  0  0  0  0
   -9.1788    1.8079    1.7875 H   0  0  0  0  0  0  0  0  0  0  0  0
  -10.8719    1.9523    1.2928 H   0  0  0  0  0  0  0  0  0  0  0  0
  -10.2521    0.4000    1.8878 H   0  0  0  0  0  0  0  0  0  0  0  0
  1  2  1  0  0  0  0
  1 26  1  0  0  0  0
  2 28  1  0  0  0  0
  2  3  1  0  0  0  0
  3  4  1  0  0  0  0
  4 32  1  0  0  0  0
  4 31  1  0  0  0  0
  4  5  1  0  0  0  0
  5  6  1  0  0  0  0
  5 34  1  0  0  0  0
  6 35  1  0  0  0  0
  7  8  1  0  0  0  0
  7 38  1  0  0  0  0
  7  6  1  0  0  0  0
  8 39  1  0  0  0  0
  9 41  1  0  0  0  0
  9  8  1  0  0  0  0
  9 42  1  0  0  0  0
 10  9  1  0  0  0  0
 11 46  1  0  0  0  0
 11 10  1  0  0  0  0
 11 12  1  0  0  0  0
 12 48  1  0  0  0  0
 13 50  1  0  0  0  0
 13 12  1  0  0  0  0
 13 49  1  0  0  0  0
 14 13  1  0  0  0  0
 15 54  1  0  0  0  0
 15 14  1  0  0  0  0
 15 16  1  0  0  0  0
 16 56  1  0  0  0  0
 17 57  1  0  0  0  0
 17 18  1  0  0  0  0
 17 16  1  0  0  0  0
 18 19  1  0  0  0  0
 19 62  1  0  0  0  0
 19 61  1  0  0  0  0
 19 20  1  0  0  0  0
 20 64  1  0  0  0  0
 21 22  1  0  0  0  0
 21 66  1  0  0  0  0
 21 20  1  0  0  0  0
 22 23  1  0  0  0  0
 23 70  1  0  0  0  0
 23 69  1  0  0  0  0
 23 71  1  0  0  0  0
 24  1  1  0  0  0  0
 25  1  1  0  0  0  0
 27  2  1  0  0  0  0
 29  3  1  0  0  0  0
 30  3  1  0  0  0  0
 33  5  1  0  0  0  0
 36  6  1  0  0  0  0
 37  7  1  0  0  0  0
 40  8  1  0  0  0  0
 43 10  1  0  0  0  0
 44 10  1  0  0  0  0
 45 11  1  0  0  0  0
 47 12  1  0  0  0  0
 51 14  1  0  0  0  0
 52 14  1  0  0  0  0
 53 15  1  0  0  0  0
 55 16  1  0  0  0  0
 58 17  1  0  0  0  0
 59 18  1  0  0  0  0
 60 18  1  0  0  0  0
 63 20  1  0  0  0  0
 65 21  1  0  0  0  0
 67 22  1  0  0  0  0
 68 22  1  0  0  0  0
M  END
>  <Charge>
0.0

>  <InChI>
1/C23H48/c1-3-5-7-9-11-13-15-17-19-21-23-22-20-18-16-14-12-10-8-6-4-2/h3-23H2,1-2H3

>  <Molecular Formula>
C_{23}H_{48}

>  <Name>
TRICOSANE

>  <SMILES>
CCCCCCCCCCCCCCCCCCCCCCC

>  <logK ((\xb1)-2-BUTANOL)>
10.33

>  <dipole moment>
0.0684806475858

$$$$
175
 OpenBabel08101817183D

 17 16  0  0  0  0  0  0  0  0999 V2000
    2.0346    0.2676   -0.4270 C   0  0  0  0  0  0  0  0  0  0  0  0
    0.6580   -0.3048   -0.7667 C   0  0  0  0  0  0  0  0  0  0  0  0
   -0.3608   -0.2739    0.3855 C   0  0  0  0  0  0  0  0  0  0  0  0
   -1.6289   -1.0434    0.0023 C   0  0  0  0  0  0  0  0  0  0  0  0
   -0.7086    1.1545    0.8184 C   0  0  0  0  0  0  0  0  0  0  0  0
    2.7270    0.1604   -1.2729 H   0  0  0  0  0  0  0  0  0  0  0  0
    2.4791   -0.2551    0.4328 H   0  0  0  0  0  0  0  0  0  0  0  0
    1.9874    1.3362   -0.1776 H   0  0  0  0  0  0  0  0  0  0  0  0
    0.7760   -1.3495   -1.0972 H   0  0  0  0  0  0  0  0  0  0  0  0
    0.2317    0.2384   -1.6280 H   0  0  0  0  0  0  0  0  0  0  0  0
    0.1005   -0.7878    1.2484 H   0  0  0  0  0  0  0  0  0  0  0  0
   -2.1277   -0.5692   -0.8571 H   0  0  0  0  0  0  0  0  0  0  0  0
   -1.3995   -2.0815   -0.2772 H   0  0  0  0  0  0  0  0  0  0  0  0
   -2.3498   -1.0682    0.8315 H   0  0  0  0  0  0  0  0  0  0  0  0
   -1.4361    1.1508    1.6422 H   0  0  0  0  0  0  0  0  0  0  0  0
    0.1737    1.7116    1.1600 H   0  0  0  0  0  0  0  0  0  0  0  0
   -1.1564    1.7142   -0.0176 H   0  0  0  0  0  0  0  0  0  0  0  0
  1  8  1  0  0  0  0
  1  7  1  0  0  0  0
  2  1  1  0  0  0  0
  2  3  1  0  0  0  0
  3  5  1  0  0  0  0
  3 11  1  0  0  0  0
  4  3  1  0  0  0  0
  4 14  1  0  0  0  0
  5 16  1  0  0  0  0
  5 15  1  0  0  0  0
  6  1  1  0  0  0  0
  9  2  1  0  0  0  0
 10  2  1  0  0  0  0
 12  4  1  0  0  0  0
 13  4  1  0  0  0  0
 17  5  1  0  0  0  0
M  END
>  <Charge>
0.0

>  <InChI>
1/C5H12/c1-4-5(2)3/h5H,4H2,1-3H3

>  <Molecular Formula>
C_{5}H_{12}

>  <Name>
ISOPENTANE

>  <SMILES>
CCC(C)C

>  <logK (1-HEXADECENE)>
1.95

>  <logK (1-METHYL-2-PIPERIDINONE)>
1.47

>  <logK (CYCLOHEXANONE)>
1.892

>  <logK (DIMETHYLFORMAMIDE)>
1.39

>  <logK (DODECANE)>
2.11

>  <logK (N,N-DIMETHYLACETAMIDE)>
1.45

>  <logK (N-ETHYLACETAMIDE)>
1.63

>  <logK (N-METHYLACETAMIDE)>
1.49

>  <logK (N-METHYLFORMAMIDE)>
1.15

>  <logK (N-METHYLPYRROLIDONE)>
1.32

>  <logK (PHENYLAMINE)>
1.13

>  <logK (TERT-BUTANOL)>
1.88

>  <mean polarizability>
9.95

>  <dipole moment>
0.105243163317

$$$$
176
 OpenBabel08101817183D

 15 14  0  0  0  0  0  0  0  0999 V2000
    1.9565   -0.5752    0.2721 C   0  0  0  0  0  0  0  0  0  0  0  0
    0.8370    0.4049    0.4819 C   0  0  0  0  0  0  0  0  0  0  0  0
   -0.4137    0.2512    0.0152 C   0  0  0  0  0  0  0  0  0  0  0  0
   -0.7943   -0.9710   -0.7869 C   0  0  0  0  0  0  0  0  0  0  0  0
   -1.4788    1.2969    0.2785 C   0  0  0  0  0  0  0  0  0  0  0  0
    2.1707   -0.7333   -0.7975 H   0  0  0  0  0  0  0  0  0  0  0  0
    2.8844   -0.2343    0.7460 H   0  0  0  0  0  0  0  0  0  0  0  0
    1.7185   -1.5677    0.6884 H   0  0  0  0  0  0  0  0  0  0  0  0
    1.0676    1.3058    1.0580 H   0  0  0  0  0  0  0  0  0  0  0  0
   -0.6338   -1.8977   -0.2135 H   0  0  0  0  0  0  0  0  0  0  0  0
   -1.8464   -0.9484   -1.0944 H   0  0  0  0  0  0  0  0  0  0  0  0
   -0.1821   -1.0642   -1.6979 H   0  0  0  0  0  0  0  0  0  0  0  0
   -1.1961    2.2759   -0.1345 H   0  0  0  0  0  0  0  0  0  0  0  0
   -2.4401    1.0182   -0.1706 H   0  0  0  0  0  0  0  0  0  0  0  0
   -1.6495    1.4391    1.3553 H   0  0  0  0  0  0  0  0  0  0  0  0
  1  2  1  0  0  0  0
  1  8  1  0  0  0  0
  1  7  1  0  0  0  0
  2  9  1  0  0  0  0
  3  5  1  0  0  0  0
  3  2  2  0  0  0  0
  4 10  1  0  0  0  0
  4  3  1  0  0  0  0
  5 15  1  0  0  0  0
  6  1  1  0  0  0  0
 11  4  1  0  0  0  0
 12  4  1  0  0  0  0
 13  5  1  0  0  0  0
 14  5  1  0  0  0  0
M  END
>  <Charge>
0.0

>  <InChI>
1/C5H10/c1-4-5(2)3/h4H,1-3H3

>  <Molecular Formula>
C_{5}H_{10}

>  <Name>
2-METHYLBUT-2-ENE

>  <SMILES>
CC=C(C)C

>  <logK (1-HEXADECENE)>
2.179

>  <logK (ACETOPHENONE)>
2.045

>  <logK (BENZONITRILE)>
2.119

>  <logK (CARBON TETRACHLORIDE)>
2.38

>  <logK (CYCLOHEXANONE)>
2.264

>  <logK (DIMETHYLFORMAMIDE)>
1.88

>  <logK (N,N-DIMETHYLACETAMIDE)>
1.89

>  <logK (N-ETHYLACETAMIDE)>
1.97

>  <logK (N-METHYLACETAMIDE)>
1.86

>  <logK (N-METHYLFORMAMIDE)>
1.59

>  <logK (N-METHYLPYRROLIDONE)>
1.82

>  <logK (PROPYLENE CARBONATE)>
1.54

>  <logK (TERT-BUTANOL)>
2.36

>  <mean polarizability>
9.76

>  <dipole moment>
0.231967472856

$$$$
177
 OpenBabel08101817183D

 24 24  0  0  0  0  0  0  0  0999 V2000
    3.4636    1.0149   -0.4230 C   0  0  0  0  0  0  0  0  0  0  0  0
    2.9423   -0.3844   -0.0617 C   0  0  0  0  0  0  0  0  0  0  0  0
    1.4357   -0.4491    0.0122 C   0  0  0  0  0  0  0  0  0  0  0  0
    0.7560   -0.1801    1.2072 C   0  0  0  0  0  0  0  0  0  0  0  0
   -0.6377   -0.2081    1.2666 C   0  0  0  0  0  0  0  0  0  0  0  0
   -1.4055   -0.5068    0.1337 C   0  0  0  0  0  0  0  0  0  0  0  0
   -0.7253   -0.7806   -1.0607 C   0  0  0  0  0  0  0  0  0  0  0  0
    0.6677   -0.7520   -1.1203 C   0  0  0  0  0  0  0  0  0  0  0  0
   -2.9143   -0.5029    0.1879 C   0  0  0  0  0  0  0  0  0  0  0  0
   -3.5225    0.8524   -0.2039 C   0  0  0  0  0  0  0  0  0  0  0  0
    3.0737    1.3401   -1.3973 H   0  0  0  0  0  0  0  0  0  0  0  0
    4.5611    1.0265   -0.4738 H   0  0  0  0  0  0  0  0  0  0  0  0
    3.1492    1.7568    0.3235 H   0  0  0  0  0  0  0  0  0  0  0  0
    3.3690   -0.6922    0.9050 H   0  0  0  0  0  0  0  0  0  0  0  0
    3.3022   -1.1091   -0.8077 H   0  0  0  0  0  0  0  0  0  0  0  0
    1.3281    0.0426    2.1104 H   0  0  0  0  0  0  0  0  0  0  0  0
   -1.1397   -0.0057    2.2152 H   0  0  0  0  0  0  0  0  0  0  0  0
   -1.2969   -1.0316   -1.9570 H   0  0  0  0  0  0  0  0  0  0  0  0
    1.1707   -0.9809   -2.0624 H   0  0  0  0  0  0  0  0  0  0  0  0
   -3.3060   -1.2830   -0.4825 H   0  0  0  0  0  0  0  0  0  0  0  0
   -3.2433   -0.7691    1.2036 H   0  0  0  0  0  0  0  0  0  0  0  0
   -4.6197    0.8213   -0.1575 H   0  0  0  0  0  0  0  0  0  0  0  0
   -3.1749    1.6482    0.4688 H   0  0  0  0  0  0  0  0  0  0  0  0
   -3.2328    1.1327   -1.2257 H   0  0  0  0  0  0  0  0  0  0  0  0
  1  2  1  0  0  0  0
  1 13  1  0  0  0  0
  2  3  1  0  0  0  0
  2 14  1  0  0  0  0
  3  4  2  0  0  0  0
  4  5  1  0  0  0  0
  4 16  1  0  0  0  0
  5 17  1  0  0  0  0
  6  9  1  0  0  0  0
  6  5  2  0  0  0  0
  7  6  1  0  0  0  0
  8  7  2  0  0  0  0
  8  3  1  0  0  0  0
  9 21  1  0  0  0  0
 10 22  1  0  0  0  0
 10  9  1  0  0  0  0
 10 23  1  0  0  0  0
 11  1  1  0  0  0  0
 12  1  1  0  0  0  0
 15  2  1  0  0  0  0
 18  7  1  0  0  0  0
 19  8  1  0  0  0  0
 20  9  1  0  0  0  0
 24 10  1  0  0  0  0
M  END
>  <Charge>
0.0

>  <InChI>
1/C10H14/c1-3-9-5-7-10(4-2)8-6-9/h5-8H,3-4H2,1-2H3

>  <Molecular Formula>
C_{10}H_{14}

>  <Name>
1,4-DIETHYLBENZENE

>  <SMILES>
CCc1ccc(cc1)CC

>  <logK (TERT-BUTANOL)>
4.62

>  <mean polarizability>
18.51

>  <dipole moment>
0.0787887050883

$$$$
178
 OpenBabel08101817183D

 24 23  0  0  0  0  0  0  0  0999 V2000
   -3.8061   -0.3919    0.2542 C   0  0  0  0  0  0  0  0  0  0  0  0
   -2.4257    0.0064   -0.2681 C   0  0  0  0  0  0  0  0  0  0  0  0
   -1.2924   -0.8092    0.3621 C   0  0  0  0  0  0  0  0  0  0  0  0
    0.1075   -0.5004   -0.1823 C   0  0  0  0  0  0  0  0  0  0  0  0
    0.6226    0.9032    0.1458 C   0  0  0  0  0  0  0  0  0  0  0  0
    2.0534    1.1688   -0.3610 C   0  0  0  0  0  0  0  0  0  0  0  0
    3.0995    0.3447    0.3281 C   0  0  0  0  0  0  0  0  0  0  0  0
    3.9541   -0.4884   -0.2707 C   0  0  0  0  0  0  0  0  0  0  0  0
   -3.8779   -0.2406    1.3412 H   0  0  0  0  0  0  0  0  0  0  0  0
   -4.6040    0.1982   -0.2169 H   0  0  0  0  0  0  0  0  0  0  0  0
   -4.0143   -1.4534    0.0556 H   0  0  0  0  0  0  0  0  0  0  0  0
   -2.3937   -0.1227   -1.3630 H   0  0  0  0  0  0  0  0  0  0  0  0
   -2.2643    1.0799   -0.0838 H   0  0  0  0  0  0  0  0  0  0  0  0
   -1.5049   -1.8801    0.2077 H   0  0  0  0  0  0  0  0  0  0  0  0
   -1.3004   -0.6560    1.4554 H   0  0  0  0  0  0  0  0  0  0  0  0
    0.1096   -0.6378   -1.2778 H   0  0  0  0  0  0  0  0  0  0  0  0
    0.8189   -1.2414    0.2143 H   0  0  0  0  0  0  0  0  0  0  0  0
   -0.0452    1.6627   -0.2878 H   0  0  0  0  0  0  0  0  0  0  0  0
    0.5927    1.0562    1.2385 H   0  0  0  0  0  0  0  0  0  0  0  0
    2.1021    0.9959   -1.4480 H   0  0  0  0  0  0  0  0  0  0  0  0
    2.2832    2.2362   -0.2013 H   0  0  0  0  0  0  0  0  0  0  0  0
    3.1459    0.4545    1.4179 H   0  0  0  0  0  0  0  0  0  0  0  0
    3.9429   -0.6320   -1.3532 H   0  0  0  0  0  0  0  0  0  0  0  0
    4.6966   -1.0530    0.2932 H   0  0  0  0  0  0  0  0  0  0  0  0
  1  9  1  0  0  0  0
  2 13  1  0  0  0  0
  2  1  1  0  0  0  0
  2  3  1  0  0  0  0
  3 15  1  0  0  0  0
  4  5  1  0  0  0  0
  4 17  1  0  0  0  0
  4  3  1  0  0  0  0
  5 19  1  0  0  0  0
  6 21  1  0  0  0  0
  6  5  1  0  0  0  0
  6  7  1  0  0  0  0
  7 22  1  0  0  0  0
  8 24  1  0  0  0  0
  8  7  2  0  0  0  0
 10  1  1  0  0  0  0
 11  1  1  0  0  0  0
 12  2  1  0  0  0  0
 14  3  1  0  0  0  0
 16  4  1  0  0  0  0
 18  5  1  0  0  0  0
 20  6  1  0  0  0  0
 23  8  1  0  0  0  0
M  END
>  <Charge>
0.0

>  <InChI>
1/C8H16/c1-3-5-7-8-6-4-2/h3H,1,4-8H2,2H3

>  <Molecular Formula>
C_{8}H_{16}

>  <Name>
OCTENE

>  <SMILES>
CCCCCCC=C

>  <logK ((\xb1)-1,2-PROPANEDIOL)>
2.118

>  <logK (1,5-DIMETHYL-2-PYRROLIDINONE)>
3.176

>  <logK (1-ETHYL-2-PYRROLIDINONE)>
3.181

>  <logK (1-OCTANOL)>
3.35

>  <logK (4-FORMYLMORPHOLINE)>
2.49

>  <logK (DIMETHYLFORMAMIDE)>
2.85

>  <logK (EPSILON-CAPROLACTONE)>
2.923

>  <logK (ETHYLBENZOATE)>
3.483

>  <logK (ETHYLENE GLYCOL)>
1.33

>  <logK (FORMAMIDE)>
1.16

>  <logK (HEPTANE)>
3.79

>  <logK (HEXADECANE)>
3.591

>  <logK (N,N-DIETHYLACETAMIDE)>
3.3

>  <logK (N-ETHYLACETAMIDE)>
3.1

>  <logK (N-ETHYLFORMAMIDE)>
2.91

>  <logK (N-METHYLFORMAMIDE)>
2.64

>  <logK (N-METHYLPYRROLIDONE)>
2.91

>  <logK (PHENYLAMINE)>
2.793

>  <logK (PROPYLENE CARBONATE)>
2.47

>  <logK (SULFOLANE)>
2.251

>  <logK (TRIBUTYL PHOSPHATE)>
3.29

>  <mean polarizability>
15.53

>  <dipole moment>
0.399641787991

$$$$
179
 OpenBabel08101817183D

 27 26  0  0  0  0  0  0  0  0999 V2000
   -3.1207    0.1681   -1.1007 C   0  0  0  0  0  0  0  0  0  0  0  0
   -2.9726   -0.8844   -0.0005 C   0  0  0  0  0  0  0  0  0  0  0  0
   -2.2404   -0.3867    1.2542 C   0  0  0  0  0  0  0  0  0  0  0  0
   -0.7853    0.0563    1.0472 C   0  0  0  0  0  0  0  0  0  0  0  0
    0.1550   -1.0609    0.5820 C   0  0  0  0  0  0  0  0  0  0  0  0
    1.6391   -0.6749    0.5811 C   0  0  0  0  0  0  0  0  0  0  0  0
    2.0104    0.4236   -0.4308 C   0  0  0  0  0  0  0  0  0  0  0  0
    3.4828    0.7021   -0.4645 C   0  0  0  0  0  0  0  0  0  0  0  0
    4.0526    1.8778   -0.1876 C   0  0  0  0  0  0  0  0  0  0  0  0
   -3.6973   -0.2229   -1.9497 H   0  0  0  0  0  0  0  0  0  0  0  0
   -3.6427    1.0614   -0.7272 H   0  0  0  0  0  0  0  0  0  0  0  0
   -2.1468    0.4952   -1.4905 H   0  0  0  0  0  0  0  0  0  0  0  0
   -2.4590   -1.7705   -0.4052 H   0  0  0  0  0  0  0  0  0  0  0  0
   -3.9728   -1.2332    0.3000 H   0  0  0  0  0  0  0  0  0  0  0  0
   -2.2616   -1.1839    2.0156 H   0  0  0  0  0  0  0  0  0  0  0  0
   -2.8079    0.4565    1.6816 H   0  0  0  0  0  0  0  0  0  0  0  0
   -0.4062    0.4588    2.0012 H   0  0  0  0  0  0  0  0  0  0  0  0
   -0.7527    0.8963    0.3363 H   0  0  0  0  0  0  0  0  0  0  0  0
    0.0196   -1.9335    1.2425 H   0  0  0  0  0  0  0  0  0  0  0  0
   -0.1292   -1.3993   -0.4281 H   0  0  0  0  0  0  0  0  0  0  0  0
    1.9338   -0.3432    1.5901 H   0  0  0  0  0  0  0  0  0  0  0  0
    2.2442   -1.5704    0.3661 H   0  0  0  0  0  0  0  0  0  0  0  0
    1.4695    1.3544   -0.2047 H   0  0  0  0  0  0  0  0  0  0  0  0
    1.6768    0.0986   -1.4327 H   0  0  0  0  0  0  0  0  0  0  0  0
    4.1245   -0.1486   -0.7219 H   0  0  0  0  0  0  0  0  0  0  0  0
    5.1338    2.0120   -0.2187 H   0  0  0  0  0  0  0  0  0  0  0  0
    3.4526    2.7511    0.0778 H   0  0  0  0  0  0  0  0  0  0  0  0
  1 11  1  0  0  0  0
  1  2  1  0  0  0  0
  2 14  1  0  0  0  0
  2  3  1  0  0  0  0
  3 16  1  0  0  0  0
  3 15  1  0  0  0  0
  4  3  1  0  0  0  0
  4 17  1  0  0  0  0
  5  4  1  0  0  0  0
  5 19  1  0  0  0  0
  6  5  1  0  0  0  0
  6 21  1  0  0  0  0
  7 23  1  0  0  0  0
  7  6  1  0  0  0  0
  8  7  1  0  0  0  0
  8  9  2  0  0  0  0
  9 27  1  0  0  0  0
 10  1  1  0  0  0  0
 12  1  1  0  0  0  0
 13  2  1  0  0  0  0
 18  4  1  0  0  0  0
 20  5  1  0  0  0  0
 22  6  1  0  0  0  0
 24  7  1  0  0  0  0
 25  8  1  0  0  0  0
 26  9  1  0  0  0  0
M  END
>  <Charge>
0.0

>  <InChI>
1/C9H18/c1-3-5-7-9-8-6-4-2/h3H,1,4-9H2,2H3

>  <Molecular Formula>
C_{9}H_{18}

>  <Name>
NONENE

>  <SMILES>
CCCCCCCC=C

>  <logK (1-OCTANOL)>
3.83

>  <logK (HEXADECANE)>
4.0

>  <mean polarizability>
17.37

>  <dipole moment>
0.593788202352

$$$$
180
 OpenBabel08101817183D

 16 16  0  0  0  0  0  0  0  0999 V2000
   -1.0556    0.7373   -0.3382 C   0  0  0  0  0  0  0  0  0  0  0  0
   -1.1204   -0.6442    0.3196 C   0  0  0  0  0  0  0  0  0  0  0  0
    0.0838   -1.5019   -0.0882 C   0  0  0  0  0  0  0  0  0  0  0  0
    1.3733   -0.7271   -0.0390 C   0  0  0  0  0  0  0  0  0  0  0  0
    1.4293    0.6073    0.0626 C   0  0  0  0  0  0  0  0  0  0  0  0
    0.2103    1.4892    0.0909 C   0  0  0  0  0  0  0  0  0  0  0  0
   -1.0477    0.6135   -1.4336 H   0  0  0  0  0  0  0  0  0  0  0  0
   -1.9507    1.3275   -0.0943 H   0  0  0  0  0  0  0  0  0  0  0  0
   -1.1209   -0.5207    1.4149 H   0  0  0  0  0  0  0  0  0  0  0  0
   -2.0584   -1.1558    0.0598 H   0  0  0  0  0  0  0  0  0  0  0  0
    0.1603   -2.3868    0.5639 H   0  0  0  0  0  0  0  0  0  0  0  0
   -0.0639   -1.9048   -1.1067 H   0  0  0  0  0  0  0  0  0  0  0  0
    2.3034   -1.2995   -0.0825 H   0  0  0  0  0  0  0  0  0  0  0  0
    2.4038    1.0984    0.1223 H   0  0  0  0  0  0  0  0  0  0  0  0
    0.0803    1.9034    1.1071 H   0  0  0  0  0  0  0  0  0  0  0  0
    0.3731    2.3642   -0.5584 H   0  0  0  0  0  0  0  0  0  0  0  0
  1  8  1  0  0  0  0
  1  6  1  0  0  0  0
  1  2  1  0  0  0  0
  2  9  1  0  0  0  0
  3  4  1  0  0  0  0
  3  2  1  0  0  0  0
  3 11  1  0  0  0  0
  4  5  2  0  0  0  0
  5  6  1  0  0  0  0
  5 14  1  0  0  0  0
  6 15  1  0  0  0  0
  7  1  1  0  0  0  0
 10  2  1  0  0  0  0
 12  3  1  0  0  0  0
 13  4  1  0  0  0  0
 16  6  1  0  0  0  0
M  END
>  <Charge>
0.0

>  <InChI>
1/C6H10/c1-2-4-6-5-3-1/h1-2H,3-6H2

>  <Molecular Formula>
C_{6}H_{10}

>  <Name>
CYCLOHEXENE

>  <SMILES>
C1CCC=CC1

>  <logK ((\xb1)-1,2-PROPANEDIOL)>
2.021

>  <logK (1,5-DIMETHYL-2-PYRROLIDINONE)>
2.76

>  <logK (1-CHLOROBUTANE)>
3.2

>  <logK (1-ETHYL-2-PYRROLIDINONE)>
2.772

>  <logK (1-METHYL-2-PIPERIDINONE)>
2.75

>  <logK (1-OCTANOL)>
2.83

>  <logK (2-BUTOXYETHANOL)>
2.84

>  <logK (2-ETHOXYETHANOL)>
2.734

>  <logK (4-FORMYLMORPHOLINE)>
2.35

>  <logK (BENZONITRILE)>
2.896

>  <logK (BUTANONE)>
2.93

>  <logK (CARBON TETRACHLORIDE)>
3.36

>  <logK (DIMETHYLFORMAMIDE)>
2.68

>  <logK (EPSILON-CAPROLACTONE)>
2.609

>  <logK (ETHYLBENZOATE)>
2.961

>  <logK (ETHYLENE GLYCOL)>
1.39

>  <logK (FORMAMIDE)>
1.37

>  <logK (METHOXYETHANOL)>
2.557

>  <logK (N,N-DIBUTYLFORMAMID)>
2.85

>  <logK (N,N-DIETHYLACETAMIDE)>
2.82

>  <logK (N,N-DIMETHYLACETAMIDE)>
2.55

>  <logK (N-ETHYLACETAMIDE)>
2.69

>  <logK (N-ETHYLFORMAMIDE)>
2.58

>  <logK (N-METHYLACETAMIDE)>
2.58

>  <logK (N-METHYLFORMAMIDE)>
2.39

>  <logK (N-METHYLPYRROLIDONE)>
2.71

>  <logK (PHENYLAMINE)>
2.56

>  <logK (PROPYLENE CARBONATE)>
2.29

>  <logK (PYRIDINE)>
3.019

>  <logK (SULFOLANE)>
2.201

>  <mean polarizability>
10.62

>  <dipole moment>
0.388306143961

$$$$
181
 OpenBabel08101817183D

  5  4  0  0  0  0  0  0  0  0999 V2000
   -0.1498   -0.0052    0.0061 C   0  0  0  0  0  0  0  0  0  0  0  0
    1.6380    0.0570   -0.0671 Cl  0  0  0  0  0  0  0  0  0  0  0  0
   -0.5130   -0.5659   -0.8592 H   0  0  0  0  0  0  0  0  0  0  0  0
   -0.4416   -0.5041    0.9341 H   0  0  0  0  0  0  0  0  0  0  0  0
   -0.5334    1.0183   -0.0139 H   0  0  0  0  0  0  0  0  0  0  0  0
  1  4  1  0  0  0  0
  2  1  1  0  0  0  0
  3  1  1  0  0  0  0
  5  1  1  0  0  0  0
M  END
>  <Charge>
0.0

>  <InChI>
1/CH3Cl/c1-2/h1H3

>  <Molecular Formula>
CH_{3}Cl

>  <Name>
CHLOROMETHANE

>  <SMILES>
CCl

>  <logK (1-OCTANOL)>
1.39

>  <logK (ACETONE)>
1.85

>  <logK (BENZONITRILE)>
1.606

>  <logK (BROMOBENZENE)>
1.59

>  <logK (CARBON TETRACHLORIDE)>
1.61

>  <logK (CHLOROBENZENE)>
1.62

>  <logK (CHLOROFORM)>
1.82

>  <logK (DIMETHYLFORMAMIDE)>
1.74

>  <logK (HEXADECANE)>
1.163

>  <logK (IODOBENZENE)>
1.54

>  <logK (METHYL ACETATE)>
1.808

>  <mean polarizability>
4.38

>  <dipole moment>
1.86909939912

$$$$
182
 OpenBabel08101817183D

  8  7  0  0  0  0  0  0  0  0999 V2000
   -0.8184   -0.1456   -0.0421 C   0  0  0  0  0  0  0  0  0  0  0  0
    0.6518    0.1328    0.1653 C   0  0  0  0  0  0  0  0  0  0  0  0
    1.6500   -1.2705   -0.3506 Cl  0  0  0  0  0  0  0  0  0  0  0  0
    1.1555    1.6159   -0.7170 Cl  0  0  0  0  0  0  0  0  0  0  0  0
   -1.1083   -1.0370    0.5286 H   0  0  0  0  0  0  0  0  0  0  0  0
   -1.4082    0.7117    0.3066 H   0  0  0  0  0  0  0  0  0  0  0  0
   -1.0321   -0.3170   -1.1032 H   0  0  0  0  0  0  0  0  0  0  0  0
    0.9098    0.3099    1.2125 H   0  0  0  0  0  0  0  0  0  0  0  0
  1  2  1  0  0  0  0
  1  6  1  0  0  0  0
  1  5  1  0  0  0  0
  2  8  1  0  0  0  0
  3  2  1  0  0  0  0
  4  2  1  0  0  0  0
  7  1  1  0  0  0  0
M  END
>  <Charge>
0.0

>  <InChI>
1/C2H4Cl2/c1-2(3)4/h2H,1H3

>  <Molecular Formula>
C_{2}H_{4}Cl_{2}

>  <Name>
1,1-DICHLOROETHANE

>  <SMILES>
CC(Cl)Cl

>  <logK (1-OCTANOL)>
2.41

>  <logK (CARBON TETRACHLORIDE)>
2.77

>  <logK (CHLOROFORM)>
3.01

>  <logK (DICHLOROETHANE)>
2.95

>  <logK (HEXADECANE)>
2.35

>  <logK (UNDECANE)>
2.1

>  <mean polarizability>
8.41

>  <dipole moment>
2.04953728342

$$$$
183
 OpenBabel08101817183D

  8  7  0  0  0  0  0  0  0  0999 V2000
   -0.7489   -0.0679   -0.2437 C   0  0  0  0  0  0  0  0  0  0  0  0
    0.6874    0.1673    0.1878 C   0  0  0  0  0  0  0  0  0  0  0  0
    1.4583   -1.3206    0.7971 Cl  0  0  0  0  0  0  0  0  0  0  0  0
    1.5841    0.8200   -1.2267 Cl  0  0  0  0  0  0  0  0  0  0  0  0
   -1.7913   -0.4707    1.1568 Cl  0  0  0  0  0  0  0  0  0  0  0  0
   -0.8068   -0.8914   -0.9627 H   0  0  0  0  0  0  0  0  0  0  0  0
   -1.1453    0.8496   -0.6917 H   0  0  0  0  0  0  0  0  0  0  0  0
    0.7626    0.9137    0.9833 H   0  0  0  0  0  0  0  0  0  0  0  0
  1  2  1  0  0  0  0
  1  5  1  0  0  0  0
  2  3  1  0  0  0  0
  2  8  1  0  0  0  0
  4  2  1  0  0  0  0
  6  1  1  0  0  0  0
  7  1  1  0  0  0  0
M  END
>  <Charge>
0.0

>  <InChI>
1/C2H3Cl3/c3-1-2(4)5/h2H,1H2

>  <Molecular Formula>
C_{2}H_{3}Cl_{3}

>  <Name>
1,1,2-TRICHLOROETHANE

>  <SMILES>
C(C(Cl)Cl)Cl

>  <logK (1-OCTANOL)>
3.4

>  <logK (CARBON TETRACHLORIDE)>
3.71

>  <logK (CHLOROFORM)>
3.87

>  <logK (DICHLOROETHANE)>
4.01

>  <logK (HEXADECANE)>
3.29

>  <mean polarizability>
10.5

>  <dipole moment>
1.19370948231

$$$$
184
 OpenBabel08101817183D

  8  7  0  0  0  0  0  0  0  0999 V2000
   -0.7965   -0.0054   -0.0188 C   0  0  0  0  0  0  0  0  0  0  0  0
    0.7965    0.0054    0.0188 C   0  0  0  0  0  0  0  0  0  0  0  0
    1.4300   -1.2618   -1.0601 Cl  0  0  0  0  0  0  0  0  0  0  0  0
    1.3590   -0.3016    1.6803 Cl  0  0  0  0  0  0  0  0  0  0  0  0
    1.3978    1.5922   -0.5216 Cl  0  0  0  0  0  0  0  0  0  0  0  0
   -1.4300    1.2618    1.0601 Cl  0  0  0  0  0  0  0  0  0  0  0  0
   -1.3590    0.3016   -1.6803 Cl  0  0  0  0  0  0  0  0  0  0  0  0
   -1.3978   -1.5922    0.5216 Cl  0  0  0  0  0  0  0  0  0  0  0  0
  1  2  1  0  0  0  0
  1  8  1  0  0  0  0
  1  6  1  0  0  0  0
  2  4  1  0  0  0  0
  3  2  1  0  0  0  0
  5  2  1  0  0  0  0
  7  1  1  0  0  0  0
M  END
>  <Charge>
0.0

>  <InChI>
1/C2Cl6/c3-1(4,5)2(6,7)8

>  <Molecular Formula>
C_{2}Cl_{6}

>  <Name>
HEXACHLOROETHANE

>  <SMILES>
C(C(Cl)(Cl)Cl)(Cl)(Cl)Cl

>  <logK (1-OCTANOL)>
4.47

>  <mean polarizability>
16.31

>  <dipole moment>
3.89164656839e-12

$$$$
185
 OpenBabel08101817183D

 11 10  0  0  1  0  0  0  0  0999 V2000
   -1.3044    0.3186    0.1041 C   0  0  0  0  0  0  0  0  0  0  0  0
    0.0118   -0.3874    0.3979 C   0  0  2  0  0  0  0  0  0  0  0  0
    1.1479    0.2033   -0.4186 C   0  0  0  0  0  0  0  0  0  0  0  0
    2.7617   -0.4185    0.0564 Cl  0  0  0  0  0  0  0  0  0  0  0  0
   -0.1570   -2.1583    0.0459 Cl  0  0  0  0  0  0  0  0  0  0  0  0
   -2.1175   -0.1284    0.6870 H   0  0  0  0  0  0  0  0  0  0  0  0
   -1.5626    0.2439   -0.9603 H   0  0  0  0  0  0  0  0  0  0  0  0
   -1.2285    1.3822    0.3735 H   0  0  0  0  0  0  0  0  0  0  0  0
    0.2562   -0.3350    1.4660 H   0  0  0  0  0  0  0  0  0  0  0  0
    1.1758    1.2901   -0.2665 H   0  0  0  0  0  0  0  0  0  0  0  0
    1.0164   -0.0103   -1.4856 H   0  0  0  0  0  0  0  0  0  0  0  0
  1  8  1  0  0  0  0
  1  2  1  0  0  0  0
  1  6  1  0  0  0  0
  2  9  1  1  0  0  0
  3 10  1  0  0  0  0
  3  4  1  0  0  0  0
  3  2  1  0  0  0  0
  5  2  1  0  0  0  0
  7  1  1  0  0  0  0
 11  3  1  0  0  0  0
M  END
>  <Charge>
0.0

>  <InChI>
1/C3H6Cl2/c1-3(5)2-4/h3H,2H2,1H3

>  <Molecular Formula>
C_{3}H_{6}Cl_{2}

>  <Name>
1,2-DICHLOROPROPANE

>  <SMILES>
CC(CCl)Cl

>  <logK (1-OCTANOL)>
2.96

>  <logK (2-ISOPROPOXYETHANOL)>
3.29868052176

>  <logK (2-PROPOXYETHANOL)>
3.31919507454

>  <logK (CARBON TETRACHLORIDE)>
3.41

>  <logK (HEXADECANE)>
2.85

>  <logK (HEXANE)>
3.055

>  <logK (PYRIDINE)>
3.668

>  <logK (UNDECANE)>
2.67

>  <mean polarizability>
10.21

>  <dipole moment>
2.94569564767

$$$$
186
 OpenBabel08101817183D

  6  5  0  0  0  0  0  0  0  0999 V2000
    0.6583   -0.1415    0.1515 C   0  0  0  0  0  0  0  0  0  0  0  0
   -0.6716   -0.1385    0.0307 C   0  0  0  0  0  0  0  0  0  0  0  0
   -1.5922    1.1218   -0.6869 Cl  0  0  0  0  0  0  0  0  0  0  0  0
    1.6988    1.1141   -0.3879 Cl  0  0  0  0  0  0  0  0  0  0  0  0
    1.1680   -0.9809    0.6203 H   0  0  0  0  0  0  0  0  0  0  0  0
   -1.2612   -0.9752    0.3998 H   0  0  0  0  0  0  0  0  0  0  0  0
  1  5  1  0  0  0  0
  2  1  2  0  0  0  0
  2  6  1  0  0  0  0
  3  2  1  0  0  0  0
  4  1  1  0  0  0  0
M  END
>  <Charge>
0.0

>  <InChI>
1/C2H2Cl2/c3-1-2-4/h1-2H/b2-1-

>  <Molecular Formula>
C_{2}H_{2}Cl_{2}

>  <Name>
(Z)-1,2-DICHLOROETHENE

>  <SMILES>
C(=C\Cl)\Cl

>  <logK (1-OCTANOL)>
2.56

>  <logK (HEXADECANE)>
2.45

>  <mean polarizability>
8.12

>  <dipole moment>
1.73016310026

$$$$
187
 OpenBabel08101817183D

  6  5  0  0  0  0  0  0  0  0999 V2000
   -0.6993   -0.0523    0.1896 C   0  0  0  0  0  0  0  0  0  0  0  0
    0.6074    0.1197   -0.0598 C   0  0  0  0  0  0  0  0  0  0  0  0
    1.5617    1.1139    0.9826 Cl  0  0  0  0  0  0  0  0  0  0  0  0
    1.4381   -0.5945   -1.3790 Cl  0  0  0  0  0  0  0  0  0  0  0  0
   -1.7379   -1.0148   -0.7767 Cl  0  0  0  0  0  0  0  0  0  0  0  0
   -1.1700    0.4279    1.0434 H   0  0  0  0  0  0  0  0  0  0  0  0
  1  6  1  0  0  0  0
  2  1  2  0  0  0  0
  2  3  1  0  0  0  0
  4  2  1  0  0  0  0
  5  1  1  0  0  0  0
M  END
>  <Charge>
0.0

>  <InChI>
1/C2HCl3/c3-1-2(4)5/h1H

>  <Molecular Formula>
C_{2}HCl_{3}

>  <Name>
TRICHLOROETHYLENE

>  <SMILES>
C(=C(Cl)Cl)Cl

>  <logK (1,4-DIOXANE)>
3.6

>  <logK (1-OCTANOL)>
2.99

>  <logK (5,8,11,14-TETRAOXAOCTADECANE)>
3.356

>  <logK (DECANE)>
2.815

>  <logK (DIETHYLENE GLYCOL DIBUTYL ETHER)>
3.354

>  <logK (HEXADECANE)>
2.997

>  <logK (N,N-DIBUTYLFORMAMID)>
3.39

>  <logK (N,N-DIMETHYLACETAMIDE)>
3.52

>  <logK (N-METHYLACETAMIDE)>
3.19

>  <logK (SULFOLANE)>
2.901

>  <logK (TETRAETHYLENE GLYCOL DIMETHYL ETHER)>
3.284

>  <logK (TRIBUTYL PHOSPHATE)>
3.31

>  <logK (UNDECANE)>
2.74

>  <mean polarizability>
10.43

>  <dipole moment>
0.772959536529

$$$$
188
 OpenBabel08101817183D

  6  5  0  0  0  0  0  0  0  0999 V2000
    0.6682    0.0160   -0.1034 C   0  0  0  0  0  0  0  0  0  0  0  0
   -0.6682   -0.0160    0.1034 C   0  0  0  0  0  0  0  0  0  0  0  0
   -1.5882    1.4104    0.3605 Cl  0  0  0  0  0  0  0  0  0  0  0  0
   -1.5545   -1.4860    0.1283 Cl  0  0  0  0  0  0  0  0  0  0  0  0
    1.5545    1.4860   -0.1283 Cl  0  0  0  0  0  0  0  0  0  0  0  0
    1.5882   -1.4104   -0.3605 Cl  0  0  0  0  0  0  0  0  0  0  0  0
  1  2  2  0  0  0  0
  2  4  1  0  0  0  0
  2  3  1  0  0  0  0
  5  1  1  0  0  0  0
  6  1  1  0  0  0  0
M  END
>  <Charge>
0.0

>  <InChI>
1/C2Cl4/c3-1(4)2(5)6

>  <Molecular Formula>
C_{2}Cl_{4}

>  <Name>
TETRACHLOROETHYLENE

>  <SMILES>
C(=C(Cl)Cl)(Cl)Cl

>  <logK (1,4-DIOXANE)>
3.74

>  <logK (1-OCTANOL)>
3.48

>  <logK (BUTANONE)>
3.65

>  <logK (CARBON TETRACHLORIDE)>
4.016

>  <logK (DICHLOROETHANE)>
3.7

>  <logK (HEXADECANE)>
3.584

>  <logK (TETRAHYDROFURAN)>
3.98

>  <logK (UNDECANE)>
3.23

>  <mean polarizability>
12.56

>  <dipole moment>
3.8459478365e-13

$$$$
189
 OpenBabel08101817183D

  5  4  0  0  0  0  0  0  0  0999 V2000
   -0.0065   -0.1823    0.0008 C   0  0  0  0  0  0  0  0  0  0  0  0
   -1.5987    0.9336   -0.0200 Br  0  0  0  0  0  0  0  0  0  0  0  0
    1.6611    0.8176    0.0130 Br  0  0  0  0  0  0  0  0  0  0  0  0
   -0.0370   -0.7805    0.9107 H   0  0  0  0  0  0  0  0  0  0  0  0
   -0.0189   -0.7885   -0.9043 H   0  0  0  0  0  0  0  0  0  0  0  0
  1  3  1  0  0  0  0
  1  4  1  0  0  0  0
  2  1  1  0  0  0  0
  5  1  1  0  0  0  0
M  END
>  <Charge>
0.0

>  <InChI>
1/CH2Br2/c2-1-3/h1H2

>  <Molecular Formula>
CH_{2}Br_{2}

>  <Name>
DIBROMOMETHANE

>  <SMILES>
C(Br)Br

>  <logK (1-OCTANOL)>
3.07

>  <logK (HEXADECANE)>
2.849

>  <mean polarizability>
7.74

>  <dipole moment>
1.41143742958

$$$$
190
 OpenBabel08101817183D

  5  4  0  0  0  0  0  0  0  0999 V2000
   -0.0059    0.0524    0.1150 C   0  0  0  0  0  0  0  0  0  0  0  0
   -0.1942    1.6814   -0.5277 Cl  0  0  0  0  0  0  0  0  0  0  0  0
   -1.4978   -1.1023   -0.3932 Br  0  0  0  0  0  0  0  0  0  0  0  0
    1.7082   -0.7333   -0.3971 Br  0  0  0  0  0  0  0  0  0  0  0  0
   -0.0103    0.1019    1.2029 H   0  0  0  0  0  0  0  0  0  0  0  0
  1  5  1  0  0  0  0
  2  1  1  0  0  0  0
  3  1  1  0  0  0  0
  4  1  1  0  0  0  0
M  END
>  <Charge>
0.0

>  <InChI>
1/CHBr2Cl/c2-1(3)4/h1H

>  <Molecular Formula>
CHBr_{2}Cl

>  <Name>
DIBROMOCHLOROMETHANE

>  <SMILES>
C(Cl)(Br)Br

>  <logK (1-OCTANOL)>
3.59

>  <mean polarizability>
10.05

>  <dipole moment>
0.907667592267

$$$$
191
 OpenBabel08101817183D

 27 26  0  0  0  0  0  0  0  0999 V2000
    2.4646    0.7119   -1.2475 C   0  0  0  0  0  0  0  0  0  0  0  0
    2.4447   -0.1053    0.0469 C   0  0  0  0  0  0  0  0  0  0  0  0
    3.6235    0.2546    0.9562 C   0  0  0  0  0  0  0  0  0  0  0  0
    1.1337    0.0774    0.8072 C   0  0  0  0  0  0  0  0  0  0  0  0
    0.0434   -0.3632    0.0104 O   0  0  0  0  0  0  0  0  0  0  0  0
   -1.2067   -0.2060    0.6664 C   0  0  0  0  0  0  0  0  0  0  0  0
   -2.3372   -0.6843   -0.2410 C   0  0  0  0  0  0  0  0  0  0  0  0
   -3.6668   -0.6299    0.5176 C   0  0  0  0  0  0  0  0  0  0  0  0
   -2.3984    0.1245   -1.5394 C   0  0  0  0  0  0  0  0  0  0  0  0
    2.4028    1.7892   -1.0281 H   0  0  0  0  0  0  0  0  0  0  0  0
    3.3942    0.5379   -1.8072 H   0  0  0  0  0  0  0  0  0  0  0  0
    1.6190    0.4497   -1.8951 H   0  0  0  0  0  0  0  0  0  0  0  0
    2.5181   -1.1745   -0.2149 H   0  0  0  0  0  0  0  0  0  0  0  0
    3.5807    1.3128    1.2562 H   0  0  0  0  0  0  0  0  0  0  0  0
    4.5790    0.0974    0.4381 H   0  0  0  0  0  0  0  0  0  0  0  0
    3.6329   -0.3543    1.8714 H   0  0  0  0  0  0  0  0  0  0  0  0
    1.1620   -0.4958    1.7560 H   0  0  0  0  0  0  0  0  0  0  0  0
    0.9999    1.1469    1.0748 H   0  0  0  0  0  0  0  0  0  0  0  0
   -1.3637    0.8606    0.9328 H   0  0  0  0  0  0  0  0  0  0  0  0
   -1.2098   -0.7832    1.6133 H   0  0  0  0  0  0  0  0  0  0  0  0
   -2.1219   -1.7359   -0.4954 H   0  0  0  0  0  0  0  0  0  0  0  0
   -4.4890   -1.0029   -0.1077 H   0  0  0  0  0  0  0  0  0  0  0  0
   -3.9137    0.4032    0.8061 H   0  0  0  0  0  0  0  0  0  0  0  0
   -3.6384   -1.2372    1.4334 H   0  0  0  0  0  0  0  0  0  0  0  0
   -2.6216    1.1820   -1.3285 H   0  0  0  0  0  0  0  0  0  0  0  0
   -3.1869   -0.2574   -2.2028 H   0  0  0  0  0  0  0  0  0  0  0  0
   -1.4443    0.0814   -2.0788 H   0  0  0  0  0  0  0  0  0  0  0  0
  1 10  1  0  0  0  0
  1  2  1  0  0  0  0
  2  4  1  0  0  0  0
  2  3  1  0  0  0  0
  3 14  1  0  0  0  0
  3 16  1  0  0  0  0
  4 18  1  0  0  0  0
  4 17  1  0  0  0  0
  5  6  1  0  0  0  0
  5  4  1  0  0  0  0
  6 19  1  0  0  0  0
  6 20  1  0  0  0  0
  7  8  1  0  0  0  0
  7  6  1  0  0  0  0
  8 23  1  0  0  0  0
  8 24  1  0  0  0  0
  9 25  1  0  0  0  0
  9  7  1  0  0  0  0
 11  1  1  0  0  0  0
 12  1  1  0  0  0  0
 13  2  1  0  0  0  0
 15  3  1  0  0  0  0
 21  7  1  0  0  0  0
 22  8  1  0  0  0  0
 26  9  1  0  0  0  0
 27  9  1  0  0  0  0
M  END
>  <Charge>
0.0

>  <InChI>
1/C8H18O/c1-7(2)5-9-6-8(3)4/h7-8H,5-6H2,1-4H3

>  <Molecular Formula>
C_{8}H_{18}O

>  <Name>
DIISOBUTYL ETHER

>  <SMILES>
CC(C)COCC(C)C

>  <logK (1-OCTANOL)>
3.4

>  <mean polarizability>
16.61

>  <dipole moment>
0.747852667399

$$$$
192
 OpenBabel08101817183D

 33 32  0  0  0  0  0  0  0  0999 V2000
    5.8502   -0.2139    0.1710 C   0  0  0  0  0  0  0  0  0  0  0  0
    4.3965   -0.6181   -0.0751 C   0  0  0  0  0  0  0  0  0  0  0  0
    3.4698    0.5873   -0.2702 C   0  0  0  0  0  0  0  0  0  0  0  0
    2.0140    0.2358   -0.6066 C   0  0  0  0  0  0  0  0  0  0  0  0
    1.2641   -0.4281    0.5508 C   0  0  0  0  0  0  0  0  0  0  0  0
   -0.0780   -0.7935    0.2385 O   0  0  0  0  0  0  0  0  0  0  0  0
   -0.9986    0.2921    0.2563 C   0  0  0  0  0  0  0  0  0  0  0  0
   -2.3982   -0.2528    0.0197 C   0  0  0  0  0  0  0  0  0  0  0  0
   -3.4686    0.8409    0.0643 C   0  0  0  0  0  0  0  0  0  0  0  0
   -4.8854    0.3484   -0.2594 C   0  0  0  0  0  0  0  0  0  0  0  0
   -5.4577   -0.6395    0.7587 C   0  0  0  0  0  0  0  0  0  0  0  0
    5.9428    0.4059    1.0747 H   0  0  0  0  0  0  0  0  0  0  0  0
    6.2477    0.3710   -0.6712 H   0  0  0  0  0  0  0  0  0  0  0  0
    6.4975   -1.0915    0.3026 H   0  0  0  0  0  0  0  0  0  0  0  0
    4.0450   -1.2343    0.7668 H   0  0  0  0  0  0  0  0  0  0  0  0
    4.3379   -1.2623   -0.9680 H   0  0  0  0  0  0  0  0  0  0  0  0
    3.4958    1.2169    0.6365 H   0  0  0  0  0  0  0  0  0  0  0  0
    3.8774    1.2143   -1.0798 H   0  0  0  0  0  0  0  0  0  0  0  0
    1.4851    1.1550   -0.9006 H   0  0  0  0  0  0  0  0  0  0  0  0
    1.9819   -0.4385   -1.4772 H   0  0  0  0  0  0  0  0  0  0  0  0
    1.7561   -1.3683    0.8358 H   0  0  0  0  0  0  0  0  0  0  0  0
    1.2781    0.2367    1.4382 H   0  0  0  0  0  0  0  0  0  0  0  0
   -0.9462    0.8096    1.2361 H   0  0  0  0  0  0  0  0  0  0  0  0
   -0.7496    1.0400   -0.5209 H   0  0  0  0  0  0  0  0  0  0  0  0
   -2.5993   -1.0262    0.7756 H   0  0  0  0  0  0  0  0  0  0  0  0
   -2.4198   -0.7568   -0.9599 H   0  0  0  0  0  0  0  0  0  0  0  0
   -3.4704    1.3129    1.0619 H   0  0  0  0  0  0  0  0  0  0  0  0
   -3.1990    1.6373   -0.6489 H   0  0  0  0  0  0  0  0  0  0  0  0
   -5.5535    1.2210   -0.3283 H   0  0  0  0  0  0  0  0  0  0  0  0
   -4.8852   -0.1131   -1.2608 H   0  0  0  0  0  0  0  0  0  0  0  0
   -5.4752   -0.2016    1.7677 H   0  0  0  0  0  0  0  0  0  0  0  0
   -6.4875   -0.9221    0.5021 H   0  0  0  0  0  0  0  0  0  0  0  0
   -4.8678   -1.5645    0.8092 H   0  0  0  0  0  0  0  0  0  0  0  0
  1 14  1  0  0  0  0
  1 12  1  0  0  0  0
  2  1  1  0  0  0  0
  2 15  1  0  0  0  0
  3  2  1  0  0  0  0
  3 17  1  0  0  0  0
  4  3  1  0  0  0  0
  4  5  1  0  0  0  0
  5 21  1  0  0  0  0
  5 22  1  0  0  0  0
  6  7  1  0  0  0  0
  6  5  1  0  0  0  0
  7 23  1  0  0  0  0
  8  9  1  0  0  0  0
  8  7  1  0  0  0  0
  8 25  1  0  0  0  0
  9 27  1  0  0  0  0
 10  9  1  0  0  0  0
 10 11  1  0  0  0  0
 11 33  1  0  0  0  0
 11 31  1  0  0  0  0
 13  1  1  0  0  0  0
 16  2  1  0  0  0  0
 18  3  1  0  0  0  0
 19  4  1  0  0  0  0
 20  4  1  0  0  0  0
 24  7  1  0  0  0  0
 26  8  1  0  0  0  0
 28  9  1  0  0  0  0
 29 10  1  0  0  0  0
 30 10  1  0  0  0  0
 32 11  1  0  0  0  0
M  END
>  <Charge>
0.0

>  <InChI>
1/C10H22O/c1-3-5-7-9-11-10-8-6-4-2/h3-10H2,1-2H3

>  <Molecular Formula>
C_{10}H_{22}O

>  <Name>
DIPENTYL ETHER

>  <SMILES>
CCCCCOCCCCC

>  <logK (1-OCTANOL)>
4.8

>  <mean polarizability>
20.49

>  <dipole moment>
1.07429645889

$$$$
193
 OpenBabel08101817183D

 16 16  0  0  0  0  0  0  0  0999 V2000
   -0.3730    1.2108    0.1264 C   0  0  0  0  0  0  0  0  0  0  0  0
   -1.4263    0.0875    0.0610 C   0  0  0  0  0  0  0  0  0  0  0  0
   -0.7546   -1.2427   -0.3320 C   0  0  0  0  0  0  0  0  0  0  0  0
    0.3836   -1.0151   -1.1616 O   0  0  0  0  0  0  0  0  0  0  0  0
    1.4563   -0.4168   -0.4231 C   0  0  0  0  0  0  0  0  0  0  0  0
    0.9676    0.6366    0.5905 C   0  0  0  0  0  0  0  0  0  0  0  0
   -0.7075    2.0174    0.7927 H   0  0  0  0  0  0  0  0  0  0  0  0
   -0.2462    1.6561   -0.8712 H   0  0  0  0  0  0  0  0  0  0  0  0
   -2.2095    0.3488   -0.6640 H   0  0  0  0  0  0  0  0  0  0  0  0
   -1.9208   -0.0334    1.0374 H   0  0  0  0  0  0  0  0  0  0  0  0
   -1.4323   -1.8820   -0.9121 H   0  0  0  0  0  0  0  0  0  0  0  0
   -0.4535   -1.8124    0.5687 H   0  0  0  0  0  0  0  0  0  0  0  0
    2.0410   -1.2061    0.0872 H   0  0  0  0  0  0  0  0  0  0  0  0
    2.1021    0.0440   -1.1834 H   0  0  0  0  0  0  0  0  0  0  0  0
    0.8451    0.1840    1.5867 H   0  0  0  0  0  0  0  0  0  0  0  0
    1.7278    1.4232    0.6969 H   0  0  0  0  0  0  0  0  0  0  0  0
  1  6  1  0  0  0  0
  1  7  1  0  0  0  0
  2  1  1  0  0  0  0
  2 10  1  0  0  0  0
  3  2  1  0  0  0  0
  3 12  1  0  0  0  0
  4  5  1  0  0  0  0
  4  3  1  0  0  0  0
  5 13  1  0  0  0  0
  5  6  1  0  0  0  0
  6 16  1  0  0  0  0
  6 15  1  0  0  0  0
  8  1  1  0  0  0  0
  9  2  1  0  0  0  0
 11  3  1  0  0  0  0
 14  5  1  0  0  0  0
M  END
>  <Charge>
0.0

>  <InChI>
1/C5H10O/c1-2-4-6-5-3-1/h1-5H2

>  <Molecular Formula>
C_{5}H_{10}O

>  <Name>
TETRAHYDROPYRAN

>  <SMILES>
C1CCOCC1

>  <logK (1,4-DIOXANE)>
3.32

>  <logK (1-OCTANOL)>
3.22

>  <logK (CHLOROFORM)>
4.28

>  <logK (HEXADECANE)>
2.99

>  <mean polarizability>
9.73

>  <dipole moment>
1.43807745852

>  <Formula>
C5H10O

$$$$
194
 OpenBabel08101817183D

 16 15  0  0  0  0  0  0  0  0999 V2000
    2.4130    0.8751   -0.0284 C   0  0  0  0  0  0  0  0  0  0  0  0
    1.3587   -0.2237    0.0138 C   0  0  0  0  0  0  0  0  0  0  0  0
   -0.0647    0.2852    0.2035 C   0  0  0  0  0  0  0  0  0  0  0  0
   -0.3322    1.4746    0.1837 O   0  0  0  0  0  0  0  0  0  0  0  0
   -1.1345   -0.7781    0.4163 C   0  0  0  0  0  0  0  0  0  0  0  0
   -2.5566   -0.2332    0.4489 C   0  0  0  0  0  0  0  0  0  0  0  0
    2.1918    1.6013   -0.8200 H   0  0  0  0  0  0  0  0  0  0  0  0
    3.4091    0.4521   -0.2115 H   0  0  0  0  0  0  0  0  0  0  0  0
    2.4431    1.4286    0.9187 H   0  0  0  0  0  0  0  0  0  0  0  0
    1.3656   -0.8133   -0.9194 H   0  0  0  0  0  0  0  0  0  0  0  0
    1.5709   -0.9577    0.8090 H   0  0  0  0  0  0  0  0  0  0  0  0
   -1.0131   -1.5466   -0.3656 H   0  0  0  0  0  0  0  0  0  0  0  0
   -0.8885   -1.2980    1.3588 H   0  0  0  0  0  0  0  0  0  0  0  0
   -3.2790   -1.0404    0.6249 H   0  0  0  0  0  0  0  0  0  0  0  0
   -2.6714    0.5151    1.2425 H   0  0  0  0  0  0  0  0  0  0  0  0
   -2.8123    0.2590   -0.4978 H   0  0  0  0  0  0  0  0  0  0  0  0
  1  2  1  0  0  0  0
  1  9  1  0  0  0  0
  2  3  1  0  0  0  0
  2 11  1  0  0  0  0
  3  5  1  0  0  0  0
  4  3  2  0  0  0  0
  5  6  1  0  0  0  0
  5 13  1  0  0  0  0
  6 14  1  0  0  0  0
  6 15  1  0  0  0  0
  7  1  1  0  0  0  0
  8  1  1  0  0  0  0
 10  2  1  0  0  0  0
 12  5  1  0  0  0  0
 16  6  1  0  0  0  0
M  END
>  <Charge>
0.0

>  <InChI>
1/C5H10O/c1-3-5(6)4-2/h3-4H2,1-2H3

>  <Molecular Formula>
C_{5}H_{10}O

>  <Name>
3-PENTANONE

>  <SMILES>
CCC(=O)CC

>  <logK (1-OCTANOL)>
3.2

>  <logK (3-PENTANONE)>
3.671

>  <logK (4-FORMYLMORPHOLINE)>
3.26

>  <logK (HEXADECANE)>
2.811

>  <logK (N-METHYLPYRROLIDONE)>
3.49

>  <mean polarizability>
10.08

>  <dipole moment>
2.70396838651

>  <experimental polarizability source>
@Article{Bosque2002, Title = {Polarizabilities of Solvents from the Chemical Composition}, Author = {Bosque, Ramon and Sales, Joaquim}, Journal = {Journal of Chemical Information and Computer Sciences}, Year = {2002}, Note = {PMID: 12377003}, Number = {5}, Pages = {1154-1163}, Volume = {42}, Doi = {10.1021/ci025528x}, Url = {https://doi.org/10.1021/ci025528x}}

>  <Formula>
C5H10O

$$$$
195
 OpenBabel08101817183D

 16 15  0  0  0  0  0  0  0  0999 V2000
   -1.2177    1.2462    0.1952 C   0  0  0  0  0  0  0  0  0  0  0  0
   -0.3629    0.0781   -0.3163 C   0  0  0  0  0  0  0  0  0  0  0  0
   -1.1925   -1.2078   -0.4398 C   0  0  0  0  0  0  0  0  0  0  0  0
    0.8097   -0.1591    0.6463 C   0  0  0  0  0  0  0  0  0  0  0  0
    0.6153   -0.4624    1.8111 O   0  0  0  0  0  0  0  0  0  0  0  0
    2.2033    0.0020    0.0804 C   0  0  0  0  0  0  0  0  0  0  0  0
   -1.6062    1.0176    1.1963 H   0  0  0  0  0  0  0  0  0  0  0  0
   -0.6392    2.1784    0.2591 H   0  0  0  0  0  0  0  0  0  0  0  0
   -2.0681    1.4208   -0.4779 H   0  0  0  0  0  0  0  0  0  0  0  0
    0.0460    0.3383   -1.3055 H   0  0  0  0  0  0  0  0  0  0  0  0
   -0.5960   -2.0426   -0.8333 H   0  0  0  0  0  0  0  0  0  0  0  0
   -2.0428   -1.0501   -1.1174 H   0  0  0  0  0  0  0  0  0  0  0  0
   -1.5804   -1.5009    0.5446 H   0  0  0  0  0  0  0  0  0  0  0  0
    2.3269    1.0180   -0.3247 H   0  0  0  0  0  0  0  0  0  0  0  0
    2.9598   -0.1889    0.8480 H   0  0  0  0  0  0  0  0  0  0  0  0
    2.3446   -0.6874   -0.7661 H   0  0  0  0  0  0  0  0  0  0  0  0
  1  8  1  0  0  0  0
  1  7  1  0  0  0  0
  2  1  1  0  0  0  0
  2  4  1  0  0  0  0
  3  2  1  0  0  0  0
  3 13  1  0  0  0  0
  4  5  2  0  0  0  0
  6  4  1  0  0  0  0
  6 15  1  0  0  0  0
  9  1  1  0  0  0  0
 10  2  1  0  0  0  0
 11  3  1  0  0  0  0
 12  3  1  0  0  0  0
 14  6  1  0  0  0  0
 16  6  1  0  0  0  0
M  END
>  <Charge>
0.0

>  <InChI>
1/C5H10O/c1-4(2)5(3)6/h4H,1-3H3

>  <Molecular Formula>
C_{5}H_{10}O

>  <Name>
3-METHYLBUTAN-2-ONE

>  <SMILES>
CC(C)C(=O)C

>  <logK (1-OCTANOL)>
3.04

>  <logK (DIISOPROPYL ETHER)>
3.148

>  <logK (HEXADECANE)>
2.66

>  <mean polarizability>
10.12

>  <dipole moment>
2.76875886431

$$$$
196
 OpenBabel08101817183D

 14 14  0  0  0  0  0  0  0  0999 V2000
    0.6202   -0.9965    0.3392 C   0  0  0  0  0  0  0  0  0  0  0  0
   -0.7929   -0.8878   -0.2749 C   0  0  0  0  0  0  0  0  0  0  0  0
   -1.1923    0.5728   -0.0327 C   0  0  0  0  0  0  0  0  0  0  0  0
    0.1246    1.3541   -0.0431 C   0  0  0  0  0  0  0  0  0  0  0  0
    0.2354    2.5620   -0.0785 O   0  0  0  0  0  0  0  0  0  0  0  0
    1.2769    0.3469   -0.0002 C   0  0  0  0  0  0  0  0  0  0  0  0
    1.1795   -1.8614   -0.0377 H   0  0  0  0  0  0  0  0  0  0  0  0
    0.5426   -1.1095    1.4312 H   0  0  0  0  0  0  0  0  0  0  0  0
   -0.7436   -1.0877   -1.3560 H   0  0  0  0  0  0  0  0  0  0  0  0
   -1.4978   -1.6086    0.1566 H   0  0  0  0  0  0  0  0  0  0  0  0
   -1.6330    0.7056    0.9698 H   0  0  0  0  0  0  0  0  0  0  0  0
   -1.9041    0.9986   -0.7505 H   0  0  0  0  0  0  0  0  0  0  0  0
    2.0636    0.6820    0.6866 H   0  0  0  0  0  0  0  0  0  0  0  0
    1.7209    0.3296   -1.0099 H   0  0  0  0  0  0  0  0  0  0  0  0
  1  8  1  0  0  0  0
  2  3  1  0  0  0  0
  2 10  1  0  0  0  0
  2  1  1  0  0  0  0
  3 11  1  0  0  0  0
  4  3  1  0  0  0  0
  4  6  1  0  0  0  0
  5  4  2  0  0  0  0
  6  1  1  0  0  0  0
  6 13  1  0  0  0  0
  7  1  1  0  0  0  0
  9  2  1  0  0  0  0
 12  3  1  0  0  0  0
 14  6  1  0  0  0  0
M  END
>  <Charge>
0.0

>  <InChI>
1/C5H8O/c6-5-3-1-2-4-5/h1-4H2

>  <Molecular Formula>
C_{5}H_{8}O

>  <Name>
CYCLOPENTANONE

>  <SMILES>
C1CCC(=O)C1

>  <logK (1-CHLOROBUTANE)>
4.0

>  <logK (1-OCTANOL)>
3.67

>  <logK (CARBON TETRACHLORIDE)>
3.87

>  <logK (DIBUTYL ETHER)>
3.53

>  <logK (DICHLOROETHANE)>
4.59

>  <logK (HEPTANE)>
3.32

>  <logK (HEXADECANE)>
3.12

>  <mean polarizability>
9.25

>  <dipole moment>
3.12512003314

$$$$
197
 OpenBabel08101817183D

  8  7  0  0  0  0  0  0  0  0999 V2000
   -1.0309   -0.1271   -0.0503 C   0  0  0  0  0  0  0  0  0  0  0  0
    0.2719   -0.6908   -0.3302 O   0  0  0  0  0  0  0  0  0  0  0  0
    1.3156    0.0849    0.0276 C   0  0  0  0  0  0  0  0  0  0  0  0
    1.2475    1.1746    0.5448 O   0  0  0  0  0  0  0  0  0  0  0  0
   -1.1604    0.8194   -0.5885 H   0  0  0  0  0  0  0  0  0  0  0  0
   -1.7517   -0.8720   -0.3966 H   0  0  0  0  0  0  0  0  0  0  0  0
   -1.1448    0.0543    1.0251 H   0  0  0  0  0  0  0  0  0  0  0  0
    2.2527   -0.4432   -0.2320 H   0  0  0  0  0  0  0  0  0  0  0  0
  1  7  1  0  0  0  0
  2  1  1  0  0  0  0
  2  3  1  0  0  0  0
  3  4  2  0  0  0  0
  5  1  1  0  0  0  0
  6  1  1  0  0  0  0
  8  3  1  0  0  0  0
M  END
>  <Charge>
0.0

>  <InChI>
1/C2H4O2/c1-4-2-3/h2H,1H3

>  <Molecular Formula>
C_{2}H_{4}O_{2}

>  <Name>
METHYL FORMATE

>  <SMILES>
COC=O

>  <logK (1-HEXADECENE)>
1.42876945039

>  <logK (1-OCTANOL)>
1.75

>  <logK (2-ETHOXYETHANOL)>
2.256

>  <logK (5,8,11,14-TETRAOXAOCTADECANE)>
2.126

>  <logK (DIETHYLENE GLYCOL DIBUTYL ETHER)>
2.091

>  <logK (DIIODOMETHANE)>
1.87

>  <logK (FORMAMIDE)>
2.26

>  <logK (HEXADECANE)>
1.459

>  <logK (N,N-DIBUTYLFORMAMID)>
2.18

>  <logK (N,N-DIMETHYLACETAMIDE)>
2.5

>  <logK (N-METHYLACETAMIDE)>
2.31

>  <logK (N-METHYLPYRROLIDONE)>
2.72

>  <logK (SULFOLANE)>
2.366

>  <logK (TETRAETHYLENE GLYCOL DIMETHYL ETHER)>
2.326

>  <mean polarizability>
5.2

>  <dipole moment>
1.90674801677

$$$$
198
 OpenBabel08101817183D

 14 13  0  0  0  0  0  0  0  0999 V2000
   -1.6663    0.6356    0.4522 C   0  0  0  0  0  0  0  0  0  0  0  0
   -0.7588   -0.5897    0.3492 C   0  0  0  0  0  0  0  0  0  0  0  0
    0.2264   -0.5322   -0.8090 C   0  0  0  0  0  0  0  0  0  0  0  0
    1.1294    0.6088   -0.6919 O   0  0  0  0  0  0  0  0  0  0  0  0
    2.2862    0.3893   -0.0341 C   0  0  0  0  0  0  0  0  0  0  0  0
    2.6512   -0.6511    0.4619 O   0  0  0  0  0  0  0  0  0  0  0  0
   -2.2528    0.7746   -0.4675 H   0  0  0  0  0  0  0  0  0  0  0  0
   -1.0835    1.5511    0.6164 H   0  0  0  0  0  0  0  0  0  0  0  0
   -2.3723    0.5336    1.2863 H   0  0  0  0  0  0  0  0  0  0  0  0
   -0.1985   -0.7381    1.2840 H   0  0  0  0  0  0  0  0  0  0  0  0
   -1.3651   -1.4987    0.2072 H   0  0  0  0  0  0  0  0  0  0  0  0
    0.8276   -1.4479   -0.8647 H   0  0  0  0  0  0  0  0  0  0  0  0
   -0.2898   -0.3676   -1.7639 H   0  0  0  0  0  0  0  0  0  0  0  0
    2.8661    1.3324   -0.0261 H   0  0  0  0  0  0  0  0  0  0  0  0
  1  8  1  0  0  0  0
  1  9  1  0  0  0  0
  2  1  1  0  0  0  0
  2 10  1  0  0  0  0
  3  4  1  0  0  0  0
  3  2  1  0  0  0  0
  4  5  1  0  0  0  0
  5 14  1  0  0  0  0
  5  6  2  0  0  0  0
  7  1  1  0  0  0  0
 11  2  1  0  0  0  0
 12  3  1  0  0  0  0
 13  3  1  0  0  0  0
M  END
>  <Charge>
0.0

>  <InChI>
1/C4H8O2/c1-2-3-6-4-5/h4H,2-3H2,1H3

>  <Molecular Formula>
C_{4}H_{8}O_{2}

>  <Name>
PROPYL FORMATE

>  <SMILES>
CCCOC=O

>  <logK (1-OCTANOL)>
2.66

>  <logK (HEXADECANE)>
2.413

>  <mean polarizability>
8.91

>  <dipole moment>
2.03317141815

$$$$
199
 OpenBabel08101817183D

 23 22  0  0  0  0  0  0  0  0999 V2000
   -3.7644   -0.1658    0.3182 C   0  0  0  0  0  0  0  0  0  0  0  0
   -2.2440   -0.1726    0.4773 C   0  0  0  0  0  0  0  0  0  0  0  0
   -1.5120   -0.2704   -0.8655 C   0  0  0  0  0  0  0  0  0  0  0  0
    0.0132   -0.4035   -0.7659 C   0  0  0  0  0  0  0  0  0  0  0  0
    0.6864    0.8256   -0.1691 C   0  0  0  0  0  0  0  0  0  0  0  0
    2.1326    0.7377   -0.2818 O   0  0  0  0  0  0  0  0  0  0  0  0
    2.7813    0.1368    0.7535 C   0  0  0  0  0  0  0  0  0  0  0  0
    2.2313   -0.2862    1.7500 O   0  0  0  0  0  0  0  0  0  0  0  0
    4.2620    0.0517    0.4805 C   0  0  0  0  0  0  0  0  0  0  0  0
   -4.0968    0.6840   -0.2956 H   0  0  0  0  0  0  0  0  0  0  0  0
   -4.1154   -1.0844   -0.1740 H   0  0  0  0  0  0  0  0  0  0  0  0
   -4.2722   -0.0931    1.2891 H   0  0  0  0  0  0  0  0  0  0  0  0
   -1.9312    0.7372    1.0127 H   0  0  0  0  0  0  0  0  0  0  0  0
   -1.9406   -1.0181    1.1156 H   0  0  0  0  0  0  0  0  0  0  0  0
   -1.8989   -1.1434   -1.4153 H   0  0  0  0  0  0  0  0  0  0  0  0
   -1.7648    0.6086   -1.4834 H   0  0  0  0  0  0  0  0  0  0  0  0
    0.4308   -0.5703   -1.7703 H   0  0  0  0  0  0  0  0  0  0  0  0
    0.2728   -1.2832   -0.1575 H   0  0  0  0  0  0  0  0  0  0  0  0
    0.4267    0.9598    0.8881 H   0  0  0  0  0  0  0  0  0  0  0  0
    0.4217    1.7313   -0.7308 H   0  0  0  0  0  0  0  0  0  0  0  0
    4.6018    0.8555   -0.1804 H   0  0  0  0  0  0  0  0  0  0  0  0
    4.8072    0.0701    1.4290 H   0  0  0  0  0  0  0  0  0  0  0  0
    4.4721   -0.9077   -0.0132 H   0  0  0  0  0  0  0  0  0  0  0  0
  1  2  1  0  0  0  0
  1 12  1  0  0  0  0
  2 13  1  0  0  0  0
  2 14  1  0  0  0  0
  3  4  1  0  0  0  0
  3  2  1  0  0  0  0
  4  5  1  0  0  0  0
  4 18  1  0  0  0  0
  5 19  1  0  0  0  0
  6  5  1  0  0  0  0
  6  7  1  0  0  0  0
  7  8  2  0  0  0  0
  9  7  1  0  0  0  0
  9 22  1  0  0  0  0
 10  1  1  0  0  0  0
 11  1  1  0  0  0  0
 15  3  1  0  0  0  0
 16  3  1  0  0  0  0
 17  4  1  0  0  0  0
 20  5  1  0  0  0  0
 21  9  1  0  0  0  0
 23  9  1  0  0  0  0
M  END
>  <Charge>
0.0

>  <InChI>
1/C7H14O2/c1-3-4-5-6-9-7(2)8/h3-6H2,1-2H3

>  <Molecular Formula>
C_{7}H_{14}O_{2}

>  <Name>
PENTYL ACETATE

>  <SMILES>
CCCCCOC(=O)C

>  <logK (1-OCTANOL)>
4.12

>  <logK (BROMOBENZENE)>
4.7

>  <logK (CARBON TETRACHLORIDE)>
4.69

>  <logK (CHLOROBENZENE)>
4.8

>  <logK (CHLOROFORM)>
5.44

>  <logK (DECANE)>
3.938

>  <logK (FORMAMIDE)>
3.17

>  <logK (HEPTANE)>
4.02

>  <logK (HEXADECANE)>
3.81

>  <logK (HEXANE)>
4.084

>  <logK (OCTANE)>
3.972

>  <logK (PYRIDINE)>
4.712

>  <logK (TOLUENE)>
4.698

>  <Formula>
C7H14O2

>  <mean polarizability>
14.7

>  <dipole moment>
1.72495546942

$$$$
200
 OpenBabel08101817183D

 26 25  0  0  0  0  0  0  0  0999 V2000
   -2.8051    1.1687    0.9737 C   0  0  0  0  0  0  0  0  0  0  0  0
   -3.0368   -0.3412    1.0557 C   0  0  0  0  0  0  0  0  0  0  0  0
   -1.7928   -1.2092    0.8163 C   0  0  0  0  0  0  0  0  0  0  0  0
   -1.1727   -1.0791   -0.5921 C   0  0  0  0  0  0  0  0  0  0  0  0
    0.0254   -0.1206   -0.6972 C   0  0  0  0  0  0  0  0  0  0  0  0
    1.2905   -0.7263   -0.1031 C   0  0  0  0  0  0  0  0  0  0  0  0
    2.3757    0.2386   -0.0594 O   0  0  0  0  0  0  0  0  0  0  0  0
    3.1640    0.3091   -1.1668 C   0  0  0  0  0  0  0  0  0  0  0  0
    3.0290   -0.3951   -2.1467 O   0  0  0  0  0  0  0  0  0  0  0  0
    4.2045    1.3897   -1.0126 C   0  0  0  0  0  0  0  0  0  0  0  0
   -3.7257    1.7212    1.2055 H   0  0  0  0  0  0  0  0  0  0  0  0
   -2.4822    1.4805   -0.0291 H   0  0  0  0  0  0  0  0  0  0  0  0
   -2.0343    1.4938    1.6879 H   0  0  0  0  0  0  0  0  0  0  0  0
   -3.4483   -0.5877    2.0471 H   0  0  0  0  0  0  0  0  0  0  0  0
   -3.8126   -0.6296    0.3273 H   0  0  0  0  0  0  0  0  0  0  0  0
   -1.0365   -0.9712    1.5831 H   0  0  0  0  0  0  0  0  0  0  0  0
   -2.0734   -2.2580    0.9944 H   0  0  0  0  0  0  0  0  0  0  0  0
   -0.8537   -2.0708   -0.9504 H   0  0  0  0  0  0  0  0  0  0  0  0
   -1.9526   -0.7524   -1.2976 H   0  0  0  0  0  0  0  0  0  0  0  0
   -0.1935    0.8258   -0.1814 H   0  0  0  0  0  0  0  0  0  0  0  0
    0.2194    0.1199   -1.7525 H   0  0  0  0  0  0  0  0  0  0  0  0
    1.6148   -1.5992   -0.6858 H   0  0  0  0  0  0  0  0  0  0  0  0
    1.1468   -1.0198    0.9442 H   0  0  0  0  0  0  0  0  0  0  0  0
    5.0631    1.1613   -1.6506 H   0  0  0  0  0  0  0  0  0  0  0  0
    3.7726    2.3440   -1.3458 H   0  0  0  0  0  0  0  0  0  0  0  0
    4.5144    1.5076    0.0310 H   0  0  0  0  0  0  0  0  0  0  0  0
  1  2  1  0  0  0  0
  1 11  1  0  0  0  0
  1 13  1  0  0  0  0
  2 14  1  0  0  0  0
  3 17  1  0  0  0  0
  3  2  1  0  0  0  0
  3 16  1  0  0  0  0
  4  3  1  0  0  0  0
  5  4  1  0  0  0  0
  5 20  1  0  0  0  0
  5  6  1  0  0  0  0
  6  7  1  0  0  0  0
  6 23  1  0  0  0  0
  8 10  1  0  0  0  0
  8  7  1  0  0  0  0
  9  8  2  0  0  0  0
 10 26  1  0  0  0  0
 12  1  1  0  0  0  0
 15  2  1  0  0  0  0
 18  4  1  0  0  0  0
 19  4  1  0  0  0  0
 21  5  1  0  0  0  0
 22  6  1  0  0  0  0
 24 10  1  0  0  0  0
 25 10  1  0  0  0  0
M  END
>  <Charge>
0.0

>  <InChI>
1/C8H16O2/c1-3-4-5-6-7-10-8(2)9/h3-7H2,1-2H3

>  <Molecular Formula>
C_{8}H_{16}O_{2}

>  <Name>
HEXYL ACETATE

>  <SMILES>
CCCCCCOC(=O)C

>  <logK (1-OCTANOL)>
4.58

>  <logK (FORMAMIDE)>
3.37

>  <logK (HEXADECANE)>
4.27

>  <logK (HEXYL ACETATE)>
4.975

>  <Formula>
C8H16O2

>  <mean polarizability>
16.47

>  <dipole moment>
1.9314464709

$$$$
201
 OpenBabel08101817183D

 17 16  0  0  0  0  0  0  0  0999 V2000
   -1.7242   -1.0231   -0.4290 C   0  0  0  0  0  0  0  0  0  0  0  0
   -0.8986    0.1010    0.1767 C   0  0  0  0  0  0  0  0  0  0  0  0
   -1.4363    1.4885   -0.1356 C   0  0  0  0  0  0  0  0  0  0  0  0
    0.4497    0.0168   -0.3917 O   0  0  0  0  0  0  0  0  0  0  0  0
    1.4778   -0.2460    0.4600 C   0  0  0  0  0  0  0  0  0  0  0  0
    1.3612   -0.4034    1.6588 O   0  0  0  0  0  0  0  0  0  0  0  0
    2.7831   -0.3389   -0.2911 C   0  0  0  0  0  0  0  0  0  0  0  0
   -1.7743   -0.9259   -1.5222 H   0  0  0  0  0  0  0  0  0  0  0  0
   -2.7483   -0.9938   -0.0334 H   0  0  0  0  0  0  0  0  0  0  0  0
   -1.2923   -2.0017   -0.1846 H   0  0  0  0  0  0  0  0  0  0  0  0
   -0.7996   -0.0379    1.2617 H   0  0  0  0  0  0  0  0  0  0  0  0
   -2.4498    1.6004    0.2721 H   0  0  0  0  0  0  0  0  0  0  0  0
   -1.4810    1.6557   -1.2205 H   0  0  0  0  0  0  0  0  0  0  0  0
   -0.8010    2.2636    0.3110 H   0  0  0  0  0  0  0  0  0  0  0  0
    3.0020   -1.3990   -0.4813 H   0  0  0  0  0  0  0  0  0  0  0  0
    3.5878    0.0602    0.3348 H   0  0  0  0  0  0  0  0  0  0  0  0
    2.7434    0.1837   -1.2519 H   0  0  0  0  0  0  0  0  0  0  0  0
  1 10  1  0  0  0  0
  1  9  1  0  0  0  0
  1  2  1  0  0  0  0
  2 11  1  0  0  0  0
  3  2  1  0  0  0  0
  3 12  1  0  0  0  0
  3 14  1  0  0  0  0
  4  2  1  0  0  0  0
  4  5  1  0  0  0  0
  5  6  2  0  0  0  0
  7 16  1  0  0  0  0
  7  5  1  0  0  0  0
  8  1  1  0  0  0  0
 13  3  1  0  0  0  0
 15  7  1  0  0  0  0
 17  7  1  0  0  0  0
M  END
>  <Charge>
0.0

>  <InChI>
1/C5H10O2/c1-4(2)7-5(3)6/h4H,1-3H3

>  <Molecular Formula>
C_{5}H_{10}O_{2}

>  <Name>
ISOPROPYL ACETATE

>  <SMILES>
CC(C)OC(=O)C

>  <logK (1-OCTANOL)>
2.93

>  <logK (HEXADECANE)>
2.633

>  <logK (ISOPROPYL ACETATE)>
3.42

>  <mean polarizability>
10.96

>  <dipole moment>
1.95831802106

>  <Formula>
C5H10O2

$$$$
202
 OpenBabel08101817183D

 20 19  0  0  0  0  0  0  0  0999 V2000
   -2.4223    0.8694    0.6530 C   0  0  0  0  0  0  0  0  0  0  0  0
   -1.1911    0.0662    0.2212 C   0  0  0  0  0  0  0  0  0  0  0  0
   -1.4283   -1.4404    0.3534 C   0  0  0  0  0  0  0  0  0  0  0  0
    0.0178    0.5255    1.0359 C   0  0  0  0  0  0  0  0  0  0  0  0
    1.2424   -0.1384    0.6248 O   0  0  0  0  0  0  0  0  0  0  0  0
    1.9648    0.4810   -0.3497 C   0  0  0  0  0  0  0  0  0  0  0  0
    1.6453    1.5279   -0.8749 O   0  0  0  0  0  0  0  0  0  0  0  0
    3.2156   -0.3036   -0.6586 C   0  0  0  0  0  0  0  0  0  0  0  0
   -2.6595    0.6909    1.7128 H   0  0  0  0  0  0  0  0  0  0  0  0
   -3.3021    0.5766    0.0646 H   0  0  0  0  0  0  0  0  0  0  0  0
   -2.2702    1.9489    0.5167 H   0  0  0  0  0  0  0  0  0  0  0  0
   -0.9776    0.3031   -0.8338 H   0  0  0  0  0  0  0  0  0  0  0  0
   -2.2624   -1.7622   -0.2845 H   0  0  0  0  0  0  0  0  0  0  0  0
   -0.5392   -2.0153    0.0651 H   0  0  0  0  0  0  0  0  0  0  0  0
   -1.6797   -1.7065    1.3914 H   0  0  0  0  0  0  0  0  0  0  0  0
    0.1578    1.6103    0.9446 H   0  0  0  0  0  0  0  0  0  0  0  0
   -0.1011    0.2549    2.0947 H   0  0  0  0  0  0  0  0  0  0  0  0
    3.9208   -0.2108    0.1788 H   0  0  0  0  0  0  0  0  0  0  0  0
    3.6801    0.0923   -1.5654 H   0  0  0  0  0  0  0  0  0  0  0  0
    2.9892   -1.3699   -0.7774 H   0  0  0  0  0  0  0  0  0  0  0  0
  1  9  1  0  0  0  0
  2  3  1  0  0  0  0
  2  1  1  0  0  0  0
  2  4  1  0  0  0  0
  3 15  1  0  0  0  0
  4 17  1  0  0  0  0
  5  4  1  0  0  0  0
  6  5  1  0  0  0  0
  7  6  2  0  0  0  0
  8  6  1  0  0  0  0
  8 18  1  0  0  0  0
 10  1  1  0  0  0  0
 11  1  1  0  0  0  0
 12  2  1  0  0  0  0
 13  3  1  0  0  0  0
 14  3  1  0  0  0  0
 16  4  1  0  0  0  0
 19  8  1  0  0  0  0
 20  8  1  0  0  0  0
M  END
>  <Charge>
0.0

>  <InChI>
1/C6H12O2/c1-5(2)4-8-6(3)7/h5H,4H2,1-3H3

>  <Molecular Formula>
C_{6}H_{12}O_{2}

>  <Name>
ISOBUTYL ACETATE

>  <SMILES>
CC(C)COC(=O)C

>  <logK (1-OCTANOL)>
3.45

>  <logK (HEXADECANE)>
3.18

>  <logK (ISOBUTYL ACETATE)>
3.898

>  <Formula>
C6H12O2

>  <mean polarizability>
12.75

>  <dipole moment>
1.74156184675

$$$$
203
 OpenBabel08101817183D

 23 22  0  0  0  0  0  0  0  0999 V2000
   -1.2826    0.7907   -1.1064 C   0  0  0  0  0  0  0  0  0  0  0  0
   -1.6716   -0.4336   -0.2704 C   0  0  0  0  0  0  0  0  0  0  0  0
   -3.1307   -0.3254    0.1873 C   0  0  0  0  0  0  0  0  0  0  0  0
   -0.7550   -0.6617    0.9447 C   0  0  0  0  0  0  0  0  0  0  0  0
    0.6901   -1.0320    0.6530 C   0  0  0  0  0  0  0  0  0  0  0  0
    1.4369    0.1632    0.2950 O   0  0  0  0  0  0  0  0  0  0  0  0
    2.7522   -0.0360    0.0140 C   0  0  0  0  0  0  0  0  0  0  0  0
    3.2866   -1.1263    0.0262 O   0  0  0  0  0  0  0  0  0  0  0  0
    3.4481    1.2693   -0.2822 C   0  0  0  0  0  0  0  0  0  0  0  0
   -0.2630    0.7156   -1.5016 H   0  0  0  0  0  0  0  0  0  0  0  0
   -1.9696    0.9118   -1.9557 H   0  0  0  0  0  0  0  0  0  0  0  0
   -1.3357    1.7074   -0.4998 H   0  0  0  0  0  0  0  0  0  0  0  0
   -1.5854   -1.3274   -0.9143 H   0  0  0  0  0  0  0  0  0  0  0  0
   -3.8065   -0.2023   -0.6704 H   0  0  0  0  0  0  0  0  0  0  0  0
   -3.4492   -1.2188    0.7430 H   0  0  0  0  0  0  0  0  0  0  0  0
   -3.2694    0.5457    0.8458 H   0  0  0  0  0  0  0  0  0  0  0  0
   -0.7741    0.2238    1.6019 H   0  0  0  0  0  0  0  0  0  0  0  0
   -1.1739   -1.4900    1.5391 H   0  0  0  0  0  0  0  0  0  0  0  0
    0.7712   -1.7576   -0.1703 H   0  0  0  0  0  0  0  0  0  0  0  0
    1.1723   -1.4809    1.5327 H   0  0  0  0  0  0  0  0  0  0  0  0
    3.9293    1.6265    0.6391 H   0  0  0  0  0  0  0  0  0  0  0  0
    2.7474    2.0375   -0.6244 H   0  0  0  0  0  0  0  0  0  0  0  0
    4.2328    1.1003   -1.0264 H   0  0  0  0  0  0  0  0  0  0  0  0
  1 12  1  0  0  0  0
  1  2  1  0  0  0  0
  2  3  1  0  0  0  0
  2  4  1  0  0  0  0
  3 15  1  0  0  0  0
  3 16  1  0  0  0  0
  4 18  1  0  0  0  0
  4 17  1  0  0  0  0
  5  4  1  0  0  0  0
  5 20  1  0  0  0  0
  6  5  1  0  0  0  0
  7  8  2  0  0  0  0
  7  6  1  0  0  0  0
  9  7  1  0  0  0  0
  9 21  1  0  0  0  0
 10  1  1  0  0  0  0
 11  1  1  0  0  0  0
 13  2  1  0  0  0  0
 14  3  1  0  0  0  0
 19  5  1  0  0  0  0
 22  9  1  0  0  0  0
 23  9  1  0  0  0  0
M  END
>  <Charge>
0.0

>  <InChI>
1/C7H14O2/c1-6(2)4-5-9-7(3)8/h6H,4-5H2,1-3H3

>  <Molecular Formula>
C_{7}H_{14}O_{2}

>  <Name>
ISOAMYL ACETATE

>  <SMILES>
CC(C)CCOC(=O)C

>  <logK (1-OCTANOL)>
3.94

>  <logK (HEXADECANE)>
3.75

>  <mean polarizability>
14.7

>  <dipole moment>
2.00526384918

$$$$
204
 OpenBabel08101817183D

 17 16  0  0  0  0  0  0  0  0999 V2000
   -2.8621    0.1905    0.1799 C   0  0  0  0  0  0  0  0  0  0  0  0
   -1.6659   -0.6765   -0.1937 C   0  0  0  0  0  0  0  0  0  0  0  0
   -0.4084    0.1230   -0.4700 C   0  0  0  0  0  0  0  0  0  0  0  0
   -0.3356    1.3345   -0.5111 O   0  0  0  0  0  0  0  0  0  0  0  0
    0.6459   -0.7115   -0.6842 O   0  0  0  0  0  0  0  0  0  0  0  0
    1.9210   -0.0754   -0.9720 C   0  0  0  0  0  0  0  0  0  0  0  0
    2.6808    0.2465    0.3018 C   0  0  0  0  0  0  0  0  0  0  0  0
   -2.6655    0.7646    1.0937 H   0  0  0  0  0  0  0  0  0  0  0  0
   -3.0923    0.9101   -0.6147 H   0  0  0  0  0  0  0  0  0  0  0  0
   -3.7485   -0.4337    0.3498 H   0  0  0  0  0  0  0  0  0  0  0  0
   -1.8738   -1.2767   -1.0937 H   0  0  0  0  0  0  0  0  0  0  0  0
   -1.4329   -1.4092    0.5933 H   0  0  0  0  0  0  0  0  0  0  0  0
    2.4564   -0.8109   -1.5844 H   0  0  0  0  0  0  0  0  0  0  0  0
    1.7369    0.8300   -1.5646 H   0  0  0  0  0  0  0  0  0  0  0  0
    3.6708    0.6515    0.0496 H   0  0  0  0  0  0  0  0  0  0  0  0
    2.1471    0.9976    0.8965 H   0  0  0  0  0  0  0  0  0  0  0  0
    2.8258   -0.6546    0.9117 H   0  0  0  0  0  0  0  0  0  0  0  0
  1 10  1  0  0  0  0
  1  8  1  0  0  0  0
  2  1  1  0  0  0  0
  2 12  1  0  0  0  0
  3  2  1  0  0  0  0
  4  3  2  0  0  0  0
  5  3  1  0  0  0  0
  6  5  1  0  0  0  0
  6  7  1  0  0  0  0
  7 16  1  0  0  0  0
  7 17  1  0  0  0  0
  9  1  1  0  0  0  0
 11  2  1  0  0  0  0
 13  6  1  0  0  0  0
 14  6  1  0  0  0  0
 15  7  1  0  0  0  0
M  END
>  <Charge>
0.0

>  <InChI>
1/C5H10O2/c1-3-5(6)7-4-2/h3-4H2,1-2H3

>  <Molecular Formula>
C_{5}H_{10}O_{2}

>  <Name>
N-ETHYL PROPANOATE

>  <SMILES>
CCC(=O)OCC

>  <logK (1-OCTANOL)>
3.15

>  <logK (2-ETHOXYETHANOL)>
3.36

>  <logK (4-FORMYLMORPHOLINE)>
3.15

>  <logK (HEXADECANE)>
2.881

>  <logK (N-METHYLPYRROLIDONE)>
3.29

>  <logK (OCTANE)>
3.01

>  <mean polarizability>
10.82

>  <dipole moment>
1.69355250709

$$$$
205
 OpenBabel08101817183D

 20 19  0  0  0  0  0  0  0  0999 V2000
   -3.4205   -0.7270    0.3163 C   0  0  0  0  0  0  0  0  0  0  0  0
   -2.2142    0.1243   -0.0743 C   0  0  0  0  0  0  0  0  0  0  0  0
   -0.9763   -0.7246   -0.3973 C   0  0  0  0  0  0  0  0  0  0  0  0
    0.1657    0.1178   -0.9239 C   0  0  0  0  0  0  0  0  0  0  0  0
    0.0896    0.8801   -1.8672 O   0  0  0  0  0  0  0  0  0  0  0  0
    1.3046   -0.0762   -0.2054 O   0  0  0  0  0  0  0  0  0  0  0  0
    2.4562    0.6915   -0.6487 C   0  0  0  0  0  0  0  0  0  0  0  0
    3.5827    0.4469    0.3309 C   0  0  0  0  0  0  0  0  0  0  0  0
   -3.2088   -1.3464    1.1995 H   0  0  0  0  0  0  0  0  0  0  0  0
   -3.7104   -1.4028   -0.5014 H   0  0  0  0  0  0  0  0  0  0  0  0
   -4.2892   -0.0978    0.5519 H   0  0  0  0  0  0  0  0  0  0  0  0
   -2.4518    0.7434   -0.9508 H   0  0  0  0  0  0  0  0  0  0  0  0
   -1.9687    0.8211    0.7424 H   0  0  0  0  0  0  0  0  0  0  0  0
   -1.2299   -1.4481   -1.1892 H   0  0  0  0  0  0  0  0  0  0  0  0
   -0.6460   -1.2961    0.4796 H   0  0  0  0  0  0  0  0  0  0  0  0
    2.7161    0.3707   -1.6676 H   0  0  0  0  0  0  0  0  0  0  0  0
    2.1722    1.7514   -0.6998 H   0  0  0  0  0  0  0  0  0  0  0  0
    4.4667    1.0223    0.0250 H   0  0  0  0  0  0  0  0  0  0  0  0
    3.3022    0.7642    1.3435 H   0  0  0  0  0  0  0  0  0  0  0  0
    3.8599   -0.6144    0.3645 H   0  0  0  0  0  0  0  0  0  0  0  0
  1 11  1  0  0  0  0
  1  9  1  0  0  0  0
  2  1  1  0  0  0  0
  2 13  1  0  0  0  0
  3  2  1  0  0  0  0
  3 15  1  0  0  0  0
  4  3  1  0  0  0  0
  4  6  1  0  0  0  0
  5  4  2  0  0  0  0
  7  6  1  0  0  0  0
  7  8  1  0  0  0  0
  8 20  1  0  0  0  0
  8 19  1  0  0  0  0
 10  1  1  0  0  0  0
 12  2  1  0  0  0  0
 14  3  1  0  0  0  0
 16  7  1  0  0  0  0
 17  7  1  0  0  0  0
 18  8  1  0  0  0  0
M  END
>  <Charge>
0.0

>  <InChI>
1/C6H12O2/c1-3-5-6(7)8-4-2/h3-5H2,1-2H3

>  <Molecular Formula>
C_{6}H_{12}O_{2}

>  <Name>
ETHYL BUTANOATE

>  <SMILES>
CCCC(=O)OCC

>  <logK (1-OCTANOL)>
3.56

>  <logK (4-FORMYLMORPHOLINE)>
3.38

>  <logK (ETHYL BUTANOATE)>
3.995

>  <logK (HEXADECANE)>
3.379

>  <logK (N-METHYLPYRROLIDONE)>
3.59

>  <logK (OCTANE)>
3.44

>  <mean polarizability>
12.92

>  <dipole moment>
1.81228115395

>  <Formula>
C6H12O2

$$$$
206
 OpenBabel08101817183D

 12 11  0  0  0  0  0  0  0  0999 V2000
    1.2281    0.0859    0.5906 C   0  0  0  0  0  0  0  0  0  0  0  0
    0.0689    0.1686   -0.4186 C   0  0  0  0  0  0  0  0  0  0  0  0
   -0.9900   -0.9228   -0.1807 C   0  0  0  0  0  0  0  0  0  0  0  0
   -0.5468    1.4977   -0.3860 C   0  0  0  0  0  0  0  0  0  0  0  0
   -1.0392    2.5501   -0.3464 N   0  0  0  0  0  0  0  0  0  0  0  0
    0.8591    0.2203    1.6154 H   0  0  0  0  0  0  0  0  0  0  0  0
    1.7060   -0.8997    0.5212 H   0  0  0  0  0  0  0  0  0  0  0  0
    1.9843    0.8549    0.3940 H   0  0  0  0  0  0  0  0  0  0  0  0
    0.4791    0.0433   -1.4344 H   0  0  0  0  0  0  0  0  0  0  0  0
   -1.4320   -0.8216    0.8187 H   0  0  0  0  0  0  0  0  0  0  0  0
   -0.5206   -1.9122   -0.2531 H   0  0  0  0  0  0  0  0  0  0  0  0
   -1.7968   -0.8645   -0.9207 H   0  0  0  0  0  0  0  0  0  0  0  0
  1  6  1  0  0  0  0
  2  4  1  0  0  0  0
  2  3  1  0  0  0  0
  2  1  1  0  0  0  0
  3 10  1  0  0  0  0
  4  5  3  0  0  0  0
  7  1  1  0  0  0  0
  8  1  1  0  0  0  0
  9  2  1  0  0  0  0
 11  3  1  0  0  0  0
 12  3  1  0  0  0  0
M  END
>  <Charge>
0.0

>  <InChI>
1/C4H7N/c1-4(2)3-5/h4H,1-2H3

>  <Molecular Formula>
C_{4}H_{7}N

>  <Name>
ISOPROPYL CYANIDE

>  <SMILES>
CC(C)C#N

>  <logK (1-OCTANOL)>
2.87

>  <mean polarizability>
8.17

>  <dipole moment>
4.11834557254

$$$$
207
 OpenBabel08101817183D

 15 14  0  0  0  0  0  0  0  0999 V2000
   -1.6026   -0.7187    0.3836 C   0  0  0  0  0  0  0  0  0  0  0  0
   -0.6524   -0.5224   -0.7984 C   0  0  0  0  0  0  0  0  0  0  0  0
    0.1648    0.7722   -0.7408 C   0  0  0  0  0  0  0  0  0  0  0  0
    1.1686    0.8423    0.4300 C   0  0  0  0  0  0  0  0  0  0  0  0
    2.1737   -0.2140    0.3788 C   0  0  0  0  0  0  0  0  0  0  0  0
    2.9657   -1.0628    0.3189 N   0  0  0  0  0  0  0  0  0  0  0  0
   -2.1916   -1.6373    0.2656 H   0  0  0  0  0  0  0  0  0  0  0  0
   -2.3087    0.1202    0.4712 H   0  0  0  0  0  0  0  0  0  0  0  0
   -1.0647   -0.8041    1.3381 H   0  0  0  0  0  0  0  0  0  0  0  0
   -1.2323   -0.5182   -1.7335 H   0  0  0  0  0  0  0  0  0  0  0  0
    0.0352   -1.3795   -0.8718 H   0  0  0  0  0  0  0  0  0  0  0  0
   -0.5099    1.6372   -0.6465 H   0  0  0  0  0  0  0  0  0  0  0  0
    0.7178    0.9024   -1.6818 H   0  0  0  0  0  0  0  0  0  0  0  0
    0.6469    0.7715    1.3963 H   0  0  0  0  0  0  0  0  0  0  0  0
    1.6896    1.8111    0.4260 H   0  0  0  0  0  0  0  0  0  0  0  0
  1  8  1  0  0  0  0
  1  9  1  0  0  0  0
  2  3  1  0  0  0  0
  2  1  1  0  0  0  0
  3 12  1  0  0  0  0
  3  4  1  0  0  0  0
  4 14  1  0  0  0  0
  5  4  1  0  0  0  0
  6  5  3  0  0  0  0
  7  1  1  0  0  0  0
 10  2  1  0  0  0  0
 11  2  1  0  0  0  0
 13  3  1  0  0  0  0
 15  4  1  0  0  0  0
M  END
>  <Charge>
0.0

>  <InChI>
1/C5H9N/c1-2-3-4-5-6/h2-4H2,1H3

>  <Molecular Formula>
C_{5}H_{9}N

>  <Name>
VALERONITRILE

>  <SMILES>
CCCCC#N

>  <logK (1-OCTANOL)>
3.6

>  <logK (HEXADECANE)>
3.057

>  <logK (HEXANE)>
3.26

>  <mean polarizability>
9.92

>  <dipole moment>
4.05126719043

$$$$
208
 OpenBabel08101817183D

 18 17  0  0  0  0  0  0  0  0999 V2000
   -2.4349    0.2763   -0.0396 C   0  0  0  0  0  0  0  0  0  0  0  0
   -1.5276   -0.7742    0.6034 C   0  0  0  0  0  0  0  0  0  0  0  0
   -0.1402   -0.8956   -0.0406 C   0  0  0  0  0  0  0  0  0  0  0  0
    0.7463    0.3372    0.1461 C   0  0  0  0  0  0  0  0  0  0  0  0
    2.1460    0.1311   -0.4646 C   0  0  0  0  0  0  0  0  0  0  0  0
    3.0179    1.2862   -0.2903 C   0  0  0  0  0  0  0  0  0  0  0  0
    3.6925    2.2201   -0.1363 N   0  0  0  0  0  0  0  0  0  0  0  0
   -2.5774    0.0733   -1.1111 H   0  0  0  0  0  0  0  0  0  0  0  0
   -2.0258    1.2913    0.0553 H   0  0  0  0  0  0  0  0  0  0  0  0
   -3.4271    0.2806    0.4312 H   0  0  0  0  0  0  0  0  0  0  0  0
   -1.4078   -0.5535    1.6767 H   0  0  0  0  0  0  0  0  0  0  0  0
   -2.0216   -1.7564    0.5505 H   0  0  0  0  0  0  0  0  0  0  0  0
    0.3757   -1.7717    0.3856 H   0  0  0  0  0  0  0  0  0  0  0  0
   -0.2564   -1.1031   -1.1184 H   0  0  0  0  0  0  0  0  0  0  0  0
    0.8536    0.5622    1.2180 H   0  0  0  0  0  0  0  0  0  0  0  0
    0.2868    1.2222   -0.3156 H   0  0  0  0  0  0  0  0  0  0  0  0
    2.0645   -0.0821   -1.5420 H   0  0  0  0  0  0  0  0  0  0  0  0
    2.6355   -0.7438   -0.0084 H   0  0  0  0  0  0  0  0  0  0  0  0
  1  9  1  0  0  0  0
  1 10  1  0  0  0  0
  1  2  1  0  0  0  0
  2 11  1  0  0  0  0
  3  4  1  0  0  0  0
  3 13  1  0  0  0  0
  3  2  1  0  0  0  0
  4 15  1  0  0  0  0
  5  6  1  0  0  0  0
  5 18  1  0  0  0  0
  5  4  1  0  0  0  0
  6  7  3  0  0  0  0
  8  1  1  0  0  0  0
 12  2  1  0  0  0  0
 14  3  1  0  0  0  0
 16  4  1  0  0  0  0
 17  5  1  0  0  0  0
M  END
>  <Charge>
0.0

>  <InChI>
1/C6H11N/c1-2-3-4-5-6-7/h2-5H2,1H3

>  <Molecular Formula>
C_{6}H_{11}N

>  <Name>
CAPRONITRILE

>  <SMILES>
CCCCCC#N

>  <logK (1-OCTANOL)>
4.08

>  <mean polarizability>
12.04

>  <dipole moment>
4.43920423591

$$$$
209
 OpenBabel08101817183D

 16 15  0  0  0  0  0  0  0  0999 V2000
   -2.3924    0.0706    0.3125 C   0  0  0  0  0  0  0  0  0  0  0  0
   -1.0244   -0.6115    0.3151 C   0  0  0  0  0  0  0  0  0  0  0  0
    0.1291    0.3565    0.0466 C   0  0  0  0  0  0  0  0  0  0  0  0
    1.4985   -0.3178    0.0494 C   0  0  0  0  0  0  0  0  0  0  0  0
    2.5609    0.6529   -0.2464 N   0  0  0  0  0  0  0  0  0  0  0  0
   -2.5956    0.5486   -0.6565 H   0  0  0  0  0  0  0  0  0  0  0  0
   -2.4475    0.8529    1.0833 H   0  0  0  0  0  0  0  0  0  0  0  0
   -3.2019   -0.6458    0.5070 H   0  0  0  0  0  0  0  0  0  0  0  0
   -1.0104   -1.4106   -0.4442 H   0  0  0  0  0  0  0  0  0  0  0  0
   -0.8641   -1.1119    1.2841 H   0  0  0  0  0  0  0  0  0  0  0  0
    0.1185    1.1549    0.8096 H   0  0  0  0  0  0  0  0  0  0  0  0
   -0.0148    0.8583   -0.9234 H   0  0  0  0  0  0  0  0  0  0  0  0
    1.6349   -0.8492    1.0133 H   0  0  0  0  0  0  0  0  0  0  0  0
    1.5235   -1.0880   -0.7377 H   0  0  0  0  0  0  0  0  0  0  0  0
    3.4700    0.1906   -0.2741 H   0  0  0  0  0  0  0  0  0  0  0  0
    2.6159    1.3492    0.4988 H   0  0  0  0  0  0  0  0  0  0  0  0
  1  2  1  0  0  0  0
  1  8  1  0  0  0  0
  1  7  1  0  0  0  0
  2 10  1  0  0  0  0
  3  4  1  0  0  0  0
  3  2  1  0  0  0  0
  3 11  1  0  0  0  0
  4 13  1  0  0  0  0
  5  4  1  0  0  0  0
  5 16  1  0  0  0  0
  6  1  1  0  0  0  0
  9  2  1  0  0  0  0
 12  3  1  0  0  0  0
 14  4  1  0  0  0  0
 15  5  1  0  0  0  0
M  END
>  <Charge>
0.0

>  <InChI>
1/C4H11N/c1-2-3-4-5/h2-5H2,1H3

>  <Molecular Formula>
C_{4}H_{11}N

>  <Name>
N-BUTYLAMINE

>  <SMILES>
CCCCN

>  <logK (1,4-DIOXANE)>
3.18

>  <logK (1-OCTANOL)>
3.61

>  <logK (BROMOBENZENE)>
3.04

>  <logK (CARBON TETRACHLORIDE)>
3.145

>  <logK (CHLOROBENZENE)>
3.06

>  <logK (CHLOROFORM)>
3.86

>  <logK (DECANE)>
2.49

>  <logK (DIBUTYL ETHER)>
2.68

>  <logK (ETHYLBENZENE)>
3.014

>  <logK (HEPTANE)>
2.98

>  <logK (HEXADECANE)>
2.618

>  <logK (IODOBENZENE)>
2.99

>  <logK (OCTANE)>
2.525

>  <logK (PENTANE)>
2.71

>  <logK (TOLUENE)>
3.247

>  <mean polarizability>
9.55

>  <dipole moment>
1.22248481163

$$$$
210
 OpenBabel08101817183D

 22 21  0  0  0  0  0  0  0  0999 V2000
    2.5527   -1.2080   -0.0336 C   0  0  0  0  0  0  0  0  0  0  0  0
    2.3952    0.2867    0.2515 C   0  0  0  0  0  0  0  0  0  0  0  0
    0.9526    0.7147    0.5277 C   0  0  0  0  0  0  0  0  0  0  0  0
    0.0991    0.5387   -0.6435 N   0  0  0  0  0  0  0  0  0  0  0  0
   -1.2471    1.0963   -0.5279 C   0  0  0  0  0  0  0  0  0  0  0  0
   -2.1631    0.5247    0.5714 C   0  0  0  0  0  0  0  0  0  0  0  0
   -2.4505   -0.9678    0.4120 C   0  0  0  0  0  0  0  0  0  0  0  0
    2.1466   -1.8148    0.7896 H   0  0  0  0  0  0  0  0  0  0  0  0
    3.6095   -1.4803   -0.1559 H   0  0  0  0  0  0  0  0  0  0  0  0
    2.0379   -1.5041   -0.9587 H   0  0  0  0  0  0  0  0  0  0  0  0
    3.0049    0.5556    1.1282 H   0  0  0  0  0  0  0  0  0  0  0  0
    2.7788    0.8712   -0.5985 H   0  0  0  0  0  0  0  0  0  0  0  0
    0.5895    0.1742    1.4294 H   0  0  0  0  0  0  0  0  0  0  0  0
    0.9354    1.7867    0.7836 H   0  0  0  0  0  0  0  0  0  0  0  0
    0.0481   -0.4469   -0.8988 H   0  0  0  0  0  0  0  0  0  0  0  0
   -1.7406    0.9651   -1.5050 H   0  0  0  0  0  0  0  0  0  0  0  0
   -1.1409    2.1832   -0.3770 H   0  0  0  0  0  0  0  0  0  0  0  0
   -1.7210    0.7164    1.5616 H   0  0  0  0  0  0  0  0  0  0  0  0
   -3.1093    1.0888    0.5490 H   0  0  0  0  0  0  0  0  0  0  0  0
   -3.1247   -1.3343    1.1973 H   0  0  0  0  0  0  0  0  0  0  0  0
   -2.9232   -1.1798   -0.5588 H   0  0  0  0  0  0  0  0  0  0  0  0
   -1.5299   -1.5666    0.4702 H   0  0  0  0  0  0  0  0  0  0  0  0
  1  2  1  0  0  0  0
  1  8  1  0  0  0  0
  2  3  1  0  0  0  0
  2 11  1  0  0  0  0
  3 14  1  0  0  0  0
  3 13  1  0  0  0  0
  4  5  1  0  0  0  0
  4  3  1  0  0  0  0
  5 17  1  0  0  0  0
  5  6  1  0  0  0  0
  6 18  1  0  0  0  0
  7 22  1  0  0  0  0
  7  6  1  0  0  0  0
  7 20  1  0  0  0  0
  9  1  1  0  0  0  0
 10  1  1  0  0  0  0
 12  2  1  0  0  0  0
 15  4  1  0  0  0  0
 16  5  1  0  0  0  0
 19  6  1  0  0  0  0
 21  7  1  0  0  0  0
M  END
>  <Charge>
0.0

>  <InChI>
1/C6H15N/c1-3-5-7-6-4-2/h7H,3-6H2,1-2H3

>  <Molecular Formula>
C_{6}H_{15}N

>  <Name>
DIPROPYLAMINE

>  <SMILES>
CCCNCCC

>  <logK (1-OCTANOL)>
3.59

>  <logK (HEPTANE)>
3.58

>  <logK (HEXADECANE)>
3.372

>  <logK (TOLUENE)>
3.841

>  <mean polarizability>
13.3

>  <dipole moment>
0.848588923387

$$$$
211
 OpenBabel08101817183D

 10  9  0  0  0  0  0  0  0  0999 V2000
   -1.1074   -0.4048   -0.1201 C   0  0  0  0  0  0  0  0  0  0  0  0
    0.0222    0.5691    0.1219 C   0  0  0  0  0  0  0  0  0  0  0  0
    1.4057   -0.0659    0.0300 N   0  0  0  0  0  0  0  0  0  0  0  0
    1.4831   -1.2641   -0.2262 O   0  0  0  0  0  0  0  0  0  0  0  0
    2.3561    0.6893    0.2224 O   0  0  0  0  0  0  0  0  0  0  0  0
   -1.1057   -1.2140    0.6185 H   0  0  0  0  0  0  0  0  0  0  0  0
   -2.0610    0.1345   -0.0414 H   0  0  0  0  0  0  0  0  0  0  0  0
   -1.0446   -0.8527   -1.1181 H   0  0  0  0  0  0  0  0  0  0  0  0
    0.0527    1.3874   -0.6080 H   0  0  0  0  0  0  0  0  0  0  0  0
   -0.0012    1.0211    1.1210 H   0  0  0  0  0  0  0  0  0  0  0  0
  1  7  1  0  0  0  0
  1  2  1  0  0  0  0
  1  6  1  0  0  0  0
  2 10  1  0  0  0  0
  3  2  1  0  0  0  0
  3  5  2  0  0  0  0
  4  3  2  0  0  0  0
  8  1  1  0  0  0  0
  9  2  1  0  0  0  0
M  END
>  <Charge>
0.0

>  <InChI>
1/C2H5NO2/c1-2-3(4)5/h2H2,1H3

>  <Molecular Formula>
C_{2}H_{5}NO_{2}

>  <Name>
NITROETHANE

>  <SMILES>
CC[N+](=O)[O-]

>  <logK (1-HEXADECENE)>
2.44363856247

>  <logK (1-OCTANOL)>
2.88

>  <logK (2,2,4-TRIMETHYLPENTANE)>
2.309

>  <logK (BUTANONE)>
3.85

>  <logK (DIIODOMETHANE)>
3.14

>  <logK (HEPTANE)>
2.45

>  <logK (HEXADECANE)>
2.367

>  <logK (HEXANE)>
2.51

>  <logK (METHYL ACETATE)>
3.999

>  <logK (METHYLCYCLOHEXANE)>
2.59

>  <logK (OCTANE)>
2.47

>  <logK (TOLUENE)>
3.388

>  <mean polarizability>
6.7

>  <dipole moment>
3.6277709221

>  <experimental polarizability source>
@Article{Bosque2002, Title = {Polarizabilities of Solvents from the Chemical Composition}, Author = {Bosque, Ramon and Sales, Joaquim}, Journal = {Journal of Chemical Information and Computer Sciences}, Year = {2002}, Note = {PMID: 12377003}, Number = {5}, Pages = {1154-1163}, Volume = {42}, Doi = {10.1021/ci025528x}, Url = {https://doi.org/10.1021/ci025528x}}

>  <Formula>
C2H5NO2

$$$$
212
 OpenBabel08101817183D

 13 12  0  0  0  0  0  0  0  0999 V2000
   -1.3531    0.6309    0.4110 C   0  0  0  0  0  0  0  0  0  0  0  0
   -0.6709   -0.4399   -0.4393 C   0  0  0  0  0  0  0  0  0  0  0  0
    0.8030   -0.1657   -0.6960 C   0  0  0  0  0  0  0  0  0  0  0  0
    1.6271   -0.2170    0.5830 N   0  0  0  0  0  0  0  0  0  0  0  0
    2.4411    0.6860    0.7651 O   0  0  0  0  0  0  0  0  0  0  0  0
    1.4353   -1.1686    1.3370 O   0  0  0  0  0  0  0  0  0  0  0  0
   -1.2771    1.6227   -0.0562 H   0  0  0  0  0  0  0  0  0  0  0  0
   -0.9055    0.6940    1.4121 H   0  0  0  0  0  0  0  0  0  0  0  0
   -2.4184    0.4027    0.5414 H   0  0  0  0  0  0  0  0  0  0  0  0
   -0.7691   -1.4281    0.0300 H   0  0  0  0  0  0  0  0  0  0  0  0
   -1.1554   -0.5080   -1.4253 H   0  0  0  0  0  0  0  0  0  0  0  0
    1.2511   -0.9337   -1.3405 H   0  0  0  0  0  0  0  0  0  0  0  0
    0.9917    0.8248   -1.1224 H   0  0  0  0  0  0  0  0  0  0  0  0
  1  9  1  0  0  0  0
  1  8  1  0  0  0  0
  2 10  1  0  0  0  0
  2  1  1  0  0  0  0
  3  2  1  0  0  0  0
  3  4  1  0  0  0  0
  4  5  2  0  0  0  0
  4  6  2  0  0  0  0
  7  1  1  0  0  0  0
 11  2  1  0  0  0  0
 12  3  1  0  0  0  0
 13  3  1  0  0  0  0
M  END
>  <Charge>
0.0

>  <InChI>
1/C3H7NO2/c1-2-3-4(5)6/h2-3H2,1H3

>  <Molecular Formula>
C_{3}H_{7}NO_{2}

>  <Name>
1-NITROPROPANE

>  <SMILES>
CCC[N+](=O)[O-]

>  <logK (1-OCTANOL)>
3.25

>  <logK (2,2,4-TRIMETHYLPENTANE)>
2.888

>  <logK (CARBON TETRACHLORIDE)>
3.44

>  <logK (HEPTANE)>
2.91

>  <logK (HEXADECANE)>
2.85

>  <logK (HEXANE)>
2.97

>  <logK (OCTANE)>
2.895

>  <logK (TOLUENE)>
3.848

>  <mean polarizability>
8.47

>  <dipole moment>
3.66082175629

$$$$
213
 OpenBabel08101817183D

 51 50  0  0  0  0  0  0  0  0999 V2000
    7.4886    0.7704    1.4692 C   0  0  0  0  0  0  0  0  0  0  0  0
    6.8228    0.3668    0.1534 C   0  0  0  0  0  0  0  0  0  0  0  0
    5.7910   -0.7518    0.3253 C   0  0  0  0  0  0  0  0  0  0  0  0
    5.1632   -1.2544   -0.9829 C   0  0  0  0  0  0  0  0  0  0  0  0
    4.3496   -0.2159   -1.7727 C   0  0  0  0  0  0  0  0  0  0  0  0
    3.1147    0.3511   -1.0557 C   0  0  0  0  0  0  0  0  0  0  0  0
    1.9894   -0.6671   -0.8429 C   0  0  0  0  0  0  0  0  0  0  0  0
    0.7689   -0.1269   -0.0839 C   0  0  0  0  0  0  0  0  0  0  0  0
   -0.0021    0.9790   -0.8130 C   0  0  0  0  0  0  0  0  0  0  0  0
   -1.2381    1.4902   -0.0598 C   0  0  0  0  0  0  0  0  0  0  0  0
   -2.4003    0.4960    0.0260 C   0  0  0  0  0  0  0  0  0  0  0  0
   -3.6088    1.0603    0.7790 C   0  0  0  0  0  0  0  0  0  0  0  0
   -4.7913    0.0935    0.9253 C   0  0  0  0  0  0  0  0  0  0  0  0
   -5.5051   -0.2391   -0.3903 C   0  0  0  0  0  0  0  0  0  0  0  0
   -6.6800   -1.2147   -0.2511 C   0  0  0  0  0  0  0  0  0  0  0  0
   -7.8615   -0.6574    0.5285 C   0  0  0  0  0  0  0  0  0  0  0  0
   -8.9219   -1.6217    0.4711 O   0  0  0  0  0  0  0  0  0  0  0  0
    8.2314    1.5658    1.3203 H   0  0  0  0  0  0  0  0  0  0  0  0
    8.0030   -0.0840    1.9326 H   0  0  0  0  0  0  0  0  0  0  0  0
    6.7471    1.1393    2.1926 H   0  0  0  0  0  0  0  0  0  0  0  0
    6.3458    1.2513   -0.2970 H   0  0  0  0  0  0  0  0  0  0  0  0
    7.5925    0.0389   -0.5652 H   0  0  0  0  0  0  0  0  0  0  0  0
    6.2768   -1.6042    0.8285 H   0  0  0  0  0  0  0  0  0  0  0  0
    5.0022   -0.4121    1.0174 H   0  0  0  0  0  0  0  0  0  0  0  0
    4.5291   -2.1267   -0.7596 H   0  0  0  0  0  0  0  0  0  0  0  0
    5.9673   -1.6326   -1.6358 H   0  0  0  0  0  0  0  0  0  0  0  0
    4.0257   -0.6753   -2.7213 H   0  0  0  0  0  0  0  0  0  0  0  0
    5.0090    0.6183   -2.0586 H   0  0  0  0  0  0  0  0  0  0  0  0
    3.4076    0.7754   -0.0805 H   0  0  0  0  0  0  0  0  0  0  0  0
    2.7348    1.1983   -1.6463 H   0  0  0  0  0  0  0  0  0  0  0  0
    2.3820   -1.5367   -0.2932 H   0  0  0  0  0  0  0  0  0  0  0  0
    1.6646   -1.0524   -1.8252 H   0  0  0  0  0  0  0  0  0  0  0  0
    1.0936    0.2527    0.9006 H   0  0  0  0  0  0  0  0  0  0  0  0
    0.0904   -0.9683    0.1253 H   0  0  0  0  0  0  0  0  0  0  0  0
   -0.3084    0.6124   -1.8084 H   0  0  0  0  0  0  0  0  0  0  0  0
    0.6700    1.8308   -0.9974 H   0  0  0  0  0  0  0  0  0  0  0  0
   -1.6006    2.4084   -0.5508 H   0  0  0  0  0  0  0  0  0  0  0  0
   -0.9413    1.7918    0.9598 H   0  0  0  0  0  0  0  0  0  0  0  0
   -2.6914    0.2044   -0.9965 H   0  0  0  0  0  0  0  0  0  0  0  0
   -2.0724   -0.4298    0.5268 H   0  0  0  0  0  0  0  0  0  0  0  0
   -3.9533    1.9814    0.2771 H   0  0  0  0  0  0  0  0  0  0  0  0
   -3.2793    1.3716    1.7842 H   0  0  0  0  0  0  0  0  0  0  0  0
   -4.4407   -0.8434    1.3922 H   0  0  0  0  0  0  0  0  0  0  0  0
   -5.5128    0.5319    1.6319 H   0  0  0  0  0  0  0  0  0  0  0  0
   -4.7837   -0.6712   -1.1000 H   0  0  0  0  0  0  0  0  0  0  0  0
   -5.8600    0.6978   -0.8543 H   0  0  0  0  0  0  0  0  0  0  0  0
   -7.0459   -1.4971   -1.2502 H   0  0  0  0  0  0  0  0  0  0  0  0
   -6.3433   -2.1456    0.2326 H   0  0  0  0  0  0  0  0  0  0  0  0
   -8.1815    0.3026    0.0796 H   0  0  0  0  0  0  0  0  0  0  0  0
   -7.5803   -0.4584    1.5776 H   0  0  0  0  0  0  0  0  0  0  0  0
   -9.6572   -1.2934    1.0095 H   0  0  0  0  0  0  0  0  0  0  0  0
  1 19  1  0  0  0  0
  1 20  1  0  0  0  0
  2  3  1  0  0  0  0
  2  1  1  0  0  0  0
  3 23  1  0  0  0  0
  3 24  1  0  0  0  0
  4 25  1  0  0  0  0
  4  3  1  0  0  0  0
  5  6  1  0  0  0  0
  5  4  1  0  0  0  0
  6  7  1  0  0  0  0
  6 29  1  0  0  0  0
  7 31  1  0  0  0  0
  7  8  1  0  0  0  0
  8 34  1  0  0  0  0
  8 33  1  0  0  0  0
  9  8  1  0  0  0  0
  9 10  1  0  0  0  0
 10 11  1  0  0  0  0
 10 38  1  0  0  0  0
 11 40  1  0  0  0  0
 11 12  1  0  0  0  0
 12 13  1  0  0  0  0
 12 42  1  0  0  0  0
 13 43  1  0  0  0  0
 13 44  1  0  0  0  0
 14 15  1  0  0  0  0
 14 13  1  0  0  0  0
 15 48  1  0  0  0  0
 15 16  1  0  0  0  0
 16 50  1  0  0  0  0
 17 16  1  0  0  0  0
 17 51  1  0  0  0  0
 18  1  1  0  0  0  0
 21  2  1  0  0  0  0
 22  2  1  0  0  0  0
 26  4  1  0  0  0  0
 27  5  1  0  0  0  0
 28  5  1  0  0  0  0
 30  6  1  0  0  0  0
 32  7  1  0  0  0  0
 35  9  1  0  0  0  0
 36  9  1  0  0  0  0
 37 10  1  0  0  0  0
 39 11  1  0  0  0  0
 41 12  1  0  0  0  0
 45 14  1  0  0  0  0
 46 14  1  0  0  0  0
 47 15  1  0  0  0  0
 49 16  1  0  0  0  0
M  END
>  <Charge>
0.0

>  <InChI>
1/C16H34O/c1-2-3-4-5-6-7-8-9-10-11-12-13-14-15-16-17/h17H,2-16H2,1H3

>  <Molecular Formula>
C_{16}H_{34}O

>  <Name>
HEXADECAN-1-OL

>  <SMILES>
CCCCCCCCCCCCCCCCO

>  <logK (1-OCTANOL)>
9.9

>  <dipole moment>
1.43621169644

$$$$
214
 OpenBabel08101817183D

 57 56  0  0  0  0  0  0  0  0999 V2000
   -7.9636    0.1335   -2.4237 C   0  0  0  0  0  0  0  0  0  0  0  0
   -8.2043    0.0091   -0.9179 C   0  0  0  0  0  0  0  0  0  0  0  0
   -6.9236   -0.0981   -0.0798 C   0  0  0  0  0  0  0  0  0  0  0  0
   -6.0656    1.1716   -0.0717 C   0  0  0  0  0  0  0  0  0  0  0  0
   -4.8516    1.1105    0.8643 C   0  0  0  0  0  0  0  0  0  0  0  0
   -3.7629    0.1190    0.4418 C   0  0  0  0  0  0  0  0  0  0  0  0
   -2.5436    0.1421    1.3681 C   0  0  0  0  0  0  0  0  0  0  0  0
   -1.4524   -0.8803    1.0200 C   0  0  0  0  0  0  0  0  0  0  0  0
   -0.7892   -0.7039   -0.3552 C   0  0  0  0  0  0  0  0  0  0  0  0
   -0.0889    0.6445   -0.5826 C   0  0  0  0  0  0  0  0  0  0  0  0
    1.0722    0.9632    0.3701 C   0  0  0  0  0  0  0  0  0  0  0  0
    2.2655    0.0087    0.2664 C   0  0  0  0  0  0  0  0  0  0  0  0
    3.4486    0.4368    1.1401 C   0  0  0  0  0  0  0  0  0  0  0  0
    4.6538   -0.5129    1.1148 C   0  0  0  0  0  0  0  0  0  0  0  0
    5.3688   -0.5880   -0.2379 C   0  0  0  0  0  0  0  0  0  0  0  0
    6.5678   -1.5481   -0.2666 C   0  0  0  0  0  0  0  0  0  0  0  0
    7.7643   -1.2026    0.6331 C   0  0  0  0  0  0  0  0  0  0  0  0
    8.5601    0.0352    0.2426 C   0  0  0  0  0  0  0  0  0  0  0  0
    7.8258    1.2165    0.6030 O   0  0  0  0  0  0  0  0  0  0  0  0
   -7.4080    1.0462   -2.6779 H   0  0  0  0  0  0  0  0  0  0  0  0
   -8.9119    0.1623   -2.9772 H   0  0  0  0  0  0  0  0  0  0  0  0
   -7.3846   -0.7225   -2.8010 H   0  0  0  0  0  0  0  0  0  0  0  0
   -8.7936    0.8718   -0.5656 H   0  0  0  0  0  0  0  0  0  0  0  0
   -8.8266   -0.8793   -0.7281 H   0  0  0  0  0  0  0  0  0  0  0  0
   -7.1976   -0.3400    0.9608 H   0  0  0  0  0  0  0  0  0  0  0  0
   -6.3300   -0.9519   -0.4450 H   0  0  0  0  0  0  0  0  0  0  0  0
   -6.7031    2.0208    0.2267 H   0  0  0  0  0  0  0  0  0  0  0  0
   -5.7173    1.3976   -1.0929 H   0  0  0  0  0  0  0  0  0  0  0  0
   -5.1921    0.8637    1.8849 H   0  0  0  0  0  0  0  0  0  0  0  0
   -4.4029    2.1154    0.9311 H   0  0  0  0  0  0  0  0  0  0  0  0
   -4.1718   -0.9042    0.4152 H   0  0  0  0  0  0  0  0  0  0  0  0
   -3.4554    0.3505   -0.5916 H   0  0  0  0  0  0  0  0  0  0  0  0
   -2.1166    1.1588    1.3777 H   0  0  0  0  0  0  0  0  0  0  0  0
   -2.8807   -0.0455    2.4011 H   0  0  0  0  0  0  0  0  0  0  0  0
   -1.8873   -1.8925    1.0681 H   0  0  0  0  0  0  0  0  0  0  0  0
   -0.6793   -0.8526    1.8042 H   0  0  0  0  0  0  0  0  0  0  0  0
   -1.5441   -0.8407   -1.1454 H   0  0  0  0  0  0  0  0  0  0  0  0
   -0.0654   -1.5211   -0.4993 H   0  0  0  0  0  0  0  0  0  0  0  0
    0.2898    0.6685   -1.6179 H   0  0  0  0  0  0  0  0  0  0  0  0
   -0.8312    1.4563   -0.5207 H   0  0  0  0  0  0  0  0  0  0  0  0
    1.4228    1.9871    0.1590 H   0  0  0  0  0  0  0  0  0  0  0  0
    0.7121    0.9841    1.4122 H   0  0  0  0  0  0  0  0  0  0  0  0
    1.9606   -1.0117    0.5533 H   0  0  0  0  0  0  0  0  0  0  0  0
    2.5783   -0.0527   -0.7888 H   0  0  0  0  0  0  0  0  0  0  0  0
    3.7792    1.4443    0.8343 H   0  0  0  0  0  0  0  0  0  0  0  0
    3.0982    0.5390    2.1805 H   0  0  0  0  0  0  0  0  0  0  0  0
    5.3696   -0.1809    1.8818 H   0  0  0  0  0  0  0  0  0  0  0  0
    4.3269   -1.5248    1.4134 H   0  0  0  0  0  0  0  0  0  0  0  0
    5.6953    0.4230   -0.5250 H   0  0  0  0  0  0  0  0  0  0  0  0
    4.6573   -0.9208   -1.0099 H   0  0  0  0  0  0  0  0  0  0  0  0
    6.9306   -1.6324   -1.3048 H   0  0  0  0  0  0  0  0  0  0  0  0
    6.2151   -2.5565    0.0089 H   0  0  0  0  0  0  0  0  0  0  0  0
    7.4502   -1.0943    1.6829 H   0  0  0  0  0  0  0  0  0  0  0  0
    8.4649   -2.0528    0.6133 H   0  0  0  0  0  0  0  0  0  0  0  0
    9.5336    0.0224    0.7647 H   0  0  0  0  0  0  0  0  0  0  0  0
    8.7634    0.0229   -0.8452 H   0  0  0  0  0  0  0  0  0  0  0  0
    8.3704    1.9860    0.3809 H   0  0  0  0  0  0  0  0  0  0  0  0
  1  2  1  0  0  0  0
  2 24  1  0  0  0  0
  2 23  1  0  0  0  0
  2  3  1  0  0  0  0
  3  4  1  0  0  0  0
  3 25  1  0  0  0  0
  4 27  1  0  0  0  0
  4  5  1  0  0  0  0
  5 30  1  0  0  0  0
  5 29  1  0  0  0  0
  6  5  1  0  0  0  0
  6  7  1  0  0  0  0
  7 33  1  0  0  0  0
  7 34  1  0  0  0  0
  8 35  1  0  0  0  0
  8  7  1  0  0  0  0
  8 36  1  0  0  0  0
  9  8  1  0  0  0  0
 10 40  1  0  0  0  0
 10  9  1  0  0  0  0
 10 11  1  0  0  0  0
 11 42  1  0  0  0  0
 12 11  1  0  0  0  0
 12 43  1  0  0  0  0
 12 13  1  0  0  0  0
 13 46  1  0  0  0  0
 14 13  1  0  0  0  0
 14 48  1  0  0  0  0
 14 47  1  0  0  0  0
 15 14  1  0  0  0  0
 16 15  1  0  0  0  0
 16 52  1  0  0  0  0
 16 17  1  0  0  0  0
 17 53  1  0  0  0  0
 18 19  1  0  0  0  0
 18 17  1  0  0  0  0
 18 55  1  0  0  0  0
 20  1  1  0  0  0  0
 21  1  1  0  0  0  0
 22  1  1  0  0  0  0
 26  3  1  0  0  0  0
 28  4  1  0  0  0  0
 31  6  1  0  0  0  0
 32  6  1  0  0  0  0
 37  9  1  0  0  0  0
 38  9  1  0  0  0  0
 39 10  1  0  0  0  0
 41 11  1  0  0  0  0
 44 12  1  0  0  0  0
 45 13  1  0  0  0  0
 49 15  1  0  0  0  0
 50 15  1  0  0  0  0
 51 16  1  0  0  0  0
 54 17  1  0  0  0  0
 56 18  1  0  0  0  0
 57 19  1  0  0  0  0
M  END
>  <Charge>
0.0

>  <InChI>
1/C18H38O/c1-2-3-4-5-6-7-8-9-10-11-12-13-14-15-16-17-18-19/h19H,2-18H2,1H3

>  <Molecular Formula>
C_{18}H_{38}O

>  <Name>
OCTADECAN-1-OL

>  <SMILES>
CCCCCCCCCCCCCCCCCCO

>  <logK (1-OCTANOL)>
10.93

>  <dipole moment>
1.61739021482

$$$$
215
 OpenBabel08101817183D

 63 62  0  0  0  0  0  0  0  0999 V2000
   -5.7163   -2.6496   -0.7890 C   0  0  0  0  0  0  0  0  0  0  0  0
   -6.9595   -1.7578   -0.7621 C   0  0  0  0  0  0  0  0  0  0  0  0
   -6.6737   -0.2650   -0.9713 C   0  0  0  0  0  0  0  0  0  0  0  0
   -5.8773    0.4003    0.1548 C   0  0  0  0  0  0  0  0  0  0  0  0
   -5.6630    1.9000   -0.0700 C   0  0  0  0  0  0  0  0  0  0  0  0
   -4.9562    2.6266    1.0836 C   0  0  0  0  0  0  0  0  0  0  0  0
   -3.5098    2.1937    1.3648 C   0  0  0  0  0  0  0  0  0  0  0  0
   -2.5296    2.4975    0.2265 C   0  0  0  0  0  0  0  0  0  0  0  0
   -1.0586    2.2134    0.5615 C   0  0  0  0  0  0  0  0  0  0  0  0
   -0.7179    0.7271    0.7128 C   0  0  0  0  0  0  0  0  0  0  0  0
    0.7353    0.4484    1.1248 C   0  0  0  0  0  0  0  0  0  0  0  0
    1.8138    0.9105    0.1322 C   0  0  0  0  0  0  0  0  0  0  0  0
    1.7466    0.2737   -1.2642 C   0  0  0  0  0  0  0  0  0  0  0  0
    1.9014   -1.2549   -1.3045 C   0  0  0  0  0  0  0  0  0  0  0  0
    3.2250   -1.8050   -0.7535 C   0  0  0  0  0  0  0  0  0  0  0  0
    4.4656   -1.3562   -1.5327 C   0  0  0  0  0  0  0  0  0  0  0  0
    5.7657   -2.0552   -1.1093 C   0  0  0  0  0  0  0  0  0  0  0  0
    6.2159   -1.8096    0.3399 C   0  0  0  0  0  0  0  0  0  0  0  0
    6.5125   -0.3483    0.7098 C   0  0  0  0  0  0  0  0  0  0  0  0
    7.6320    0.3064   -0.0990 C   0  0  0  0  0  0  0  0  0  0  0  0
    8.9090   -0.3190    0.0718 O   0  0  0  0  0  0  0  0  0  0  0  0
   -5.0197   -2.4091    0.0256 H   0  0  0  0  0  0  0  0  0  0  0  0
   -5.9853   -3.7098   -0.6868 H   0  0  0  0  0  0  0  0  0  0  0  0
   -5.1700   -2.5356   -1.7370 H   0  0  0  0  0  0  0  0  0  0  0  0
   -7.4885   -1.8928    0.1959 H   0  0  0  0  0  0  0  0  0  0  0  0
   -7.6586   -2.0956   -1.5430 H   0  0  0  0  0  0  0  0  0  0  0  0
   -7.6318    0.2680   -1.0872 H   0  0  0  0  0  0  0  0  0  0  0  0
   -6.1359   -0.1303   -1.9259 H   0  0  0  0  0  0  0  0  0  0  0  0
   -4.9035   -0.1012    0.2667 H   0  0  0  0  0  0  0  0  0  0  0  0
   -6.4094    0.2500    1.1108 H   0  0  0  0  0  0  0  0  0  0  0  0
   -6.6445    2.3764   -0.2301 H   0  0  0  0  0  0  0  0  0  0  0  0
   -5.1047    2.0508   -1.0086 H   0  0  0  0  0  0  0  0  0  0  0  0
   -4.9640    3.7097    0.8767 H   0  0  0  0  0  0  0  0  0  0  0  0
   -5.5517    2.4895    2.0014 H   0  0  0  0  0  0  0  0  0  0  0  0
   -3.4855    1.1207    1.6102 H   0  0  0  0  0  0  0  0  0  0  0  0
   -3.1622    2.7152    2.2723 H   0  0  0  0  0  0  0  0  0  0  0  0
   -2.8072    1.9260   -0.6748 H   0  0  0  0  0  0  0  0  0  0  0  0
   -2.6331    3.5607   -0.0473 H   0  0  0  0  0  0  0  0  0  0  0  0
   -0.4288    2.6533   -0.2275 H   0  0  0  0  0  0  0  0  0  0  0  0
   -0.7909    2.7426    1.4931 H   0  0  0  0  0  0  0  0  0  0  0  0
   -1.3780    0.2746    1.4689 H   0  0  0  0  0  0  0  0  0  0  0  0
   -0.9487    0.2081   -0.2329 H   0  0  0  0  0  0  0  0  0  0  0  0
    0.9254    0.9372    2.0947 H   0  0  0  0  0  0  0  0  0  0  0  0
    0.8485   -0.6315    1.3107 H   0  0  0  0  0  0  0  0  0  0  0  0
    1.7628    2.0045    0.0182 H   0  0  0  0  0  0  0  0  0  0  0  0
    2.8014    0.7119    0.5789 H   0  0  0  0  0  0  0  0  0  0  0  0
    0.7887    0.5366   -1.7407 H   0  0  0  0  0  0  0  0  0  0  0  0
    2.5209    0.7370   -1.8956 H   0  0  0  0  0  0  0  0  0  0  0  0
    1.7898   -1.5871   -2.3500 H   0  0  0  0  0  0  0  0  0  0  0  0
    1.0688   -1.7213   -0.7543 H   0  0  0  0  0  0  0  0  0  0  0  0
    3.3268   -1.5289    0.3081 H   0  0  0  0  0  0  0  0  0  0  0  0
    3.1779   -2.9069   -0.7703 H   0  0  0  0  0  0  0  0  0  0  0  0
    4.5872   -0.2647   -1.4499 H   0  0  0  0  0  0  0  0  0  0  0  0
    4.2994   -1.5551   -2.6047 H   0  0  0  0  0  0  0  0  0  0  0  0
    5.6452   -3.1415   -1.2532 H   0  0  0  0  0  0  0  0  0  0  0  0
    6.5679   -1.7528   -1.8023 H   0  0  0  0  0  0  0  0  0  0  0  0
    7.1120   -2.4214    0.5398 H   0  0  0  0  0  0  0  0  0  0  0  0
    5.4532   -2.1960    1.0330 H   0  0  0  0  0  0  0  0  0  0  0  0
    6.7796   -0.2976    1.7765 H   0  0  0  0  0  0  0  0  0  0  0  0
    5.6045    0.2652    0.5869 H   0  0  0  0  0  0  0  0  0  0  0  0
    7.7738    1.3422    0.2379 H   0  0  0  0  0  0  0  0  0  0  0  0
    7.3636    0.3493   -1.1705 H   0  0  0  0  0  0  0  0  0  0  0  0
    8.8438   -1.2273   -0.2604 H   0  0  0  0  0  0  0  0  0  0  0  0
  1  2  1  0  0  0  0
  1 23  1  0  0  0  0
  1 22  1  0  0  0  0
  2 25  1  0  0  0  0
  3  2  1  0  0  0  0
  3  4  1  0  0  0  0
  4 29  1  0  0  0  0
  4 30  1  0  0  0  0
  5  4  1  0  0  0  0
  5  6  1  0  0  0  0
  6  7  1  0  0  0  0
  6 34  1  0  0  0  0
  7 35  1  0  0  0  0
  7 36  1  0  0  0  0
  8  9  1  0  0  0  0
  8  7  1  0  0  0  0
  9 10  1  0  0  0  0
  9 40  1  0  0  0  0
 10 11  1  0  0  0  0
 10 41  1  0  0  0  0
 11 44  1  0  0  0  0
 11 43  1  0  0  0  0
 12 46  1  0  0  0  0
 12 11  1  0  0  0  0
 13 12  1  0  0  0  0
 14 13  1  0  0  0  0
 14 50  1  0  0  0  0
 14 15  1  0  0  0  0
 15 51  1  0  0  0  0
 16 53  1  0  0  0  0
 16 17  1  0  0  0  0
 16 15  1  0  0  0  0
 17 18  1  0  0  0  0
 18 57  1  0  0  0  0
 18 19  1  0  0  0  0
 18 58  1  0  0  0  0
 19 59  1  0  0  0  0
 20 21  1  0  0  0  0
 20 61  1  0  0  0  0
 20 19  1  0  0  0  0
 24  1  1  0  0  0  0
 26  2  1  0  0  0  0
 27  3  1  0  0  0  0
 28  3  1  0  0  0  0
 31  5  1  0  0  0  0
 32  5  1  0  0  0  0
 33  6  1  0  0  0  0
 37  8  1  0  0  0  0
 38  8  1  0  0  0  0
 39  9  1  0  0  0  0
 42 10  1  0  0  0  0
 45 12  1  0  0  0  0
 47 13  1  0  0  0  0
 48 13  1  0  0  0  0
 49 14  1  0  0  0  0
 52 15  1  0  0  0  0
 54 16  1  0  0  0  0
 55 17  1  0  0  0  0
 56 17  1  0  0  0  0
 60 19  1  0  0  0  0
 62 20  1  0  0  0  0
 63 21  1  0  0  0  0
M  END
>  <Charge>
0.0

>  <InChI>
1/C20H42O/c1-2-3-4-5-6-7-8-9-10-11-12-13-14-15-16-17-18-19-20-21/h21H,2-20H2,1H3

>  <Molecular Formula>
C_{20}H_{42}O

>  <Name>
EICOSANOL

>  <SMILES>
CCCCCCCCCCCCCCCCCCCCO

>  <logK (1-OCTANOL)>
12.06

>  <dipole moment>
1.96818129908

$$$$
216
 OpenBabel08101817183D

 10  9  0  0  0  0  0  0  0  0999 V2000
   -1.3598    0.1542    0.0708 C   0  0  0  0  0  0  0  0  0  0  0  0
    0.2164   -0.0794    0.9627 S   0  0  0  0  0  0  0  0  0  0  0  0
    0.3074   -1.5322    1.3177 O   0  0  0  0  0  0  0  0  0  0  0  0
    1.2959    0.1846   -0.4861 C   0  0  0  0  0  0  0  0  0  0  0  0
   -1.4223    1.1830   -0.3060 H   0  0  0  0  0  0  0  0  0  0  0  0
   -2.1588   -0.0266    0.7983 H   0  0  0  0  0  0  0  0  0  0  0  0
   -1.4211   -0.5745   -0.7472 H   0  0  0  0  0  0  0  0  0  0  0  0
    2.3236    0.0246   -0.1416 H   0  0  0  0  0  0  0  0  0  0  0  0
    1.0394   -0.5464   -1.2632 H   0  0  0  0  0  0  0  0  0  0  0  0
    1.1793    1.2128   -0.8515 H   0  0  0  0  0  0  0  0  0  0  0  0
  1  6  1  0  0  0  0
  1  2  1  0  0  0  0
  2  3  1  0  0  0  0
  4  8  1  0  0  0  0
  4  2  1  0  0  0  0
  5  1  1  0  0  0  0
  7  1  1  0  0  0  0
  9  4  1  0  0  0  0
 10  4  1  0  0  0  0
M  RAD  1   3   2
M  END
>  <Charge>
0.0

>  <InChI>
1/C2H6OS/c1-4(2)3/h1-2H3

>  <Molecular Formula>
C_{2}H_{6}OS

>  <Name>
DIMETHYL SULFOXIDE

>  <SMILES>
CS(=O)C

>  <logK (1-OCTANOL)>
4.96

>  <logK (CHLOROFORM)>
6.43

>  <logK (DICHLOROETHANE)>
6.28

>  <logK (ETHYL ACETATE)>
4.88

>  <mean polarizability>
8.2

>  <dipole moment>
3.78983838466

>  <experimental polarizability source>
@Article{Bosque2002, Title = {Polarizabilities of Solvents from the Chemical Composition}, Author = {Bosque, Ramon and Sales, Joaquim}, Journal = {Journal of Chemical Information and Computer Sciences}, Year = {2002}, Note = {PMID: 12377003}, Number = {5}, Pages = {1154-1163}, Volume = {42}, Doi = {10.1021/ci025528x}, Url = {https://doi.org/10.1021/ci025528x}}

>  <Formula>
C2H6OS

$$$$
217
 OpenBabel08101817183D

 18 18  0  0  0  0  0  0  0  0999 V2000
    2.4604   -1.0556   -0.0552 C   0  0  0  0  0  0  0  0  0  0  0  0
    1.2121   -0.2122   -0.0247 C   0  0  0  0  0  0  0  0  0  0  0  0
    1.2943    1.1879   -0.0039 C   0  0  0  0  0  0  0  0  0  0  0  0
    0.1364    1.9630    0.0186 C   0  0  0  0  0  0  0  0  0  0  0  0
   -1.1204    1.3548    0.0236 C   0  0  0  0  0  0  0  0  0  0  0  0
   -1.2338   -0.0403    0.0073 C   0  0  0  0  0  0  0  0  0  0  0  0
   -0.0568   -0.8021   -0.0198 C   0  0  0  0  0  0  0  0  0  0  0  0
   -2.5832   -0.7095    0.0444 C   0  0  0  0  0  0  0  0  0  0  0  0
    3.0935   -0.8622    0.8229 H   0  0  0  0  0  0  0  0  0  0  0  0
    3.0691   -0.8357   -0.9443 H   0  0  0  0  0  0  0  0  0  0  0  0
    2.2209   -2.1262   -0.0679 H   0  0  0  0  0  0  0  0  0  0  0  0
    2.2730    1.6712   -0.0108 H   0  0  0  0  0  0  0  0  0  0  0  0
    0.2122    3.0510    0.0285 H   0  0  0  0  0  0  0  0  0  0  0  0
   -2.0226    1.9688    0.0372 H   0  0  0  0  0  0  0  0  0  0  0  0
   -0.1325   -1.8924   -0.0409 H   0  0  0  0  0  0  0  0  0  0  0  0
   -2.8980   -0.9064    1.0809 H   0  0  0  0  0  0  0  0  0  0  0  0
   -3.3558   -0.0801   -0.4162 H   0  0  0  0  0  0  0  0  0  0  0  0
   -2.5690   -1.6740   -0.4797 H   0  0  0  0  0  0  0  0  0  0  0  0
  1  2  1  0  0  0  0
  1  9  1  0  0  0  0
  2  7  2  0  0  0  0
  2  3  1  0  0  0  0
  3  4  2  0  0  0  0
  4  5  1  0  0  0  0
  4 13  1  0  0  0  0
  5 14  1  0  0  0  0
  6  5  2  0  0  0  0
  6  8  1  0  0  0  0
  7  6  1  0  0  0  0
  8 16  1  0  0  0  0
 10  1  1  0  0  0  0
 11  1  1  0  0  0  0
 12  3  1  0  0  0  0
 15  7  1  0  0  0  0
 17  8  1  0  0  0  0
 18  8  1  0  0  0  0
M  END
>  <Charge>
0.0

>  <InChI>
1/C8H10/c1-7-4-3-5-8(2)6-7/h3-6H,1-2H3

>  <Molecular Formula>
C_{8}H_{10}

>  <Name>
M-XYLENE

>  <SMILES>
Cc1cccc(c1)C

>  <logK ((\xb1)-1,2-PROPANEDIOL)>
2.965

>  <logK (1-OCTANOL)>
3.79

>  <logK (2,2,4-TRIMETHYLPENTANE)>
3.753

>  <logK (2-BUTOXYETHANOL)>
3.89

>  <logK (2-ETHOXYETHANOL)>
3.838

>  <logK (2-ISOPROPOXYETHANOL)>
3.89767755122

>  <logK (2-PROPOXYETHANOL)>
3.85866718807

>  <logK (4-FORMYLMORPHOLINE)>
3.69

>  <logK (5,8,11,14-TETRAOXAOCTADECANE)>
4.041

>  <logK (BUTYL ACETATE)>
4.44

>  <logK (CARBON TETRACHLORIDE)>
4.18

>  <logK (CHLOROFORM)>
4.29

>  <logK (DICHLOROETHANE)>
4.38

>  <logK (DIETHYLENE GLYCOL DIBUTYL ETHER)>
4.073

>  <logK (ETHYLBENZOATE)>
4.164

>  <logK (ETHYLENE GLYCOL)>
2.51

>  <logK (FORMAMIDE)>
2.41

>  <logK (HEPTANE)>
3.95

>  <logK (HEXADECANE)>
3.864

>  <logK (M-XYLENE)>
4.255

>  <logK (METHOXYETHANOL)>
3.741

>  <logK (N-METHYLFORMAMIDE)>
3.53

>  <logK (PROPYLENE CARBONATE)>
3.55

>  <logK (PYRIDINE)>
4.257

>  <logK (SULFOLANE)>
3.564

>  <logK (TETRAETHYLENE GLYCOL DIMETHYL ETHER)>
3.905

>  <logK (TRIBUTYL PHOSPHATE)>
3.98

>  <experimental polarizability source>
@Article{Bosque2002, Title = {Polarizabilities of Solvents from the Chemical Composition}, Author = {Bosque, Ramon and Sales, Joaquim}, Journal = {Journal of Chemical Information and Computer Sciences}, Year = {2002}, Note = {PMID: 12377003}, Number = {5}, Pages = {1154-1163}, Volume = {42}, Doi = {10.1021/ci025528x}, Url = {https://doi.org/10.1021/ci025528x}}

>  <Formula>
C8H10

>  <mean polarizability>
14.4

>  <dipole moment>
0.362293944109

$$$$
218
 OpenBabel08101817183D

 16 16  0  0  0  0  0  0  0  0999 V2000
    2.6898   -0.1667   -0.0843 C   0  0  0  0  0  0  0  0  0  0  0  0
    1.6801    0.8351   -0.0291 O   0  0  0  0  0  0  0  0  0  0  0  0
    0.3763    0.4206   -0.0007 C   0  0  0  0  0  0  0  0  0  0  0  0
   -0.5855    1.4415    0.0534 C   0  0  0  0  0  0  0  0  0  0  0  0
   -1.9378    1.1211    0.0855 C   0  0  0  0  0  0  0  0  0  0  0  0
   -2.3544   -0.2151    0.0646 C   0  0  0  0  0  0  0  0  0  0  0  0
   -1.3959   -1.2243    0.0110 C   0  0  0  0  0  0  0  0  0  0  0  0
   -0.0307   -0.9198   -0.0219 C   0  0  0  0  0  0  0  0  0  0  0  0
    2.6020   -0.7793   -0.9957 H   0  0  0  0  0  0  0  0  0  0  0  0
    2.6556   -0.8241    0.7992 H   0  0  0  0  0  0  0  0  0  0  0  0
    3.6436    0.3703   -0.0993 H   0  0  0  0  0  0  0  0  0  0  0  0
   -0.2465    2.4769    0.0691 H   0  0  0  0  0  0  0  0  0  0  0  0
   -2.6757    1.9227    0.1273 H   0  0  0  0  0  0  0  0  0  0  0  0
   -3.4149   -0.4626    0.0899 H   0  0  0  0  0  0  0  0  0  0  0  0
   -1.7045   -2.2700   -0.0054 H   0  0  0  0  0  0  0  0  0  0  0  0
    0.6982   -1.7264   -0.0636 H   0  0  0  0  0  0  0  0  0  0  0  0
  1  2  1  0  0  0  0
  1 10  1  0  0  0  0
  2  3  1  0  0  0  0
  3  4  1  0  0  0  0
  4 12  1  0  0  0  0
  4  5  2  0  0  0  0
  5 13  1  0  0  0  0
  6  5  1  0  0  0  0
  6 14  1  0  0  0  0
  7  6  2  0  0  0  0
  8  3  2  0  0  0  0
  8  7  1  0  0  0  0
  9  1  1  0  0  0  0
 11  1  1  0  0  0  0
 15  7  1  0  0  0  0
 16  8  1  0  0  0  0
M  END
>  <Charge>
0.0

>  <InChI>
1/C7H8O/c1-8-7-5-3-2-4-6-7/h2-6H,1H3

>  <Molecular Formula>
C_{7}H_{8}O

>  <Name>
ANISOLE

>  <SMILES>
COc1ccccc1

>  <logK (1-OCTANOL)>
4.01

>  <logK (CARBON TETRACHLORIDE)>
4.24

>  <logK (CHLOROFORM)>
4.92

>  <logK (DODECANE)>
3.86

>  <logK (ETHYLENE GLYCOL)>
3.23

>  <logK (HEPTANE)>
3.921

>  <logK (HEXADECANE)>
3.926

>  <mean polarizability>
13.19

>  <dipole moment>
1.3100191344

>  <Formula>
C7H8O

$$$$
219
 OpenBabel08101817183D

 13 13  0  0  0  0  0  0  0  0999 V2000
   -1.7234    0.1391   -0.0078 C   0  0  0  0  0  0  0  0  0  0  0  0
   -0.9307    1.2866   -0.0885 C   0  0  0  0  0  0  0  0  0  0  0  0
    0.4574    1.1820   -0.0827 C   0  0  0  0  0  0  0  0  0  0  0  0
    1.0602   -0.0856    0.0048 C   0  0  0  0  0  0  0  0  0  0  0  0
    0.2612   -1.2400    0.0858 C   0  0  0  0  0  0  0  0  0  0  0  0
   -1.1258   -1.1206    0.0791 C   0  0  0  0  0  0  0  0  0  0  0  0
    2.4844   -0.2005    0.0114 C   0  0  0  0  0  0  0  0  0  0  0  0
    3.6457   -0.2942    0.0168 N   0  0  0  0  0  0  0  0  0  0  0  0
   -2.8098    0.2268   -0.0128 H   0  0  0  0  0  0  0  0  0  0  0  0
   -1.3961    2.2696   -0.1563 H   0  0  0  0  0  0  0  0  0  0  0  0
    1.0838    2.0706   -0.1451 H   0  0  0  0  0  0  0  0  0  0  0  0
    0.7364   -2.2175    0.1533 H   0  0  0  0  0  0  0  0  0  0  0  0
   -1.7434   -2.0162    0.1420 H   0  0  0  0  0  0  0  0  0  0  0  0
  1  6  2  0  0  0  0
  2  3  2  0  0  0  0
  2  1  1  0  0  0  0
  3  4  1  0  0  0  0
  4  7  1  0  0  0  0
  4  5  2  0  0  0  0
  5 12  1  0  0  0  0
  6  5  1  0  0  0  0
  6 13  1  0  0  0  0
  7  8  3  0  0  0  0
  9  1  1  0  0  0  0
 10  2  1  0  0  0  0
 11  3  1  0  0  0  0
M  END
>  <Charge>
0.0

>  <InChI>
1/C7H5N/c8-6-7-4-2-1-3-5-7/h1-5H

>  <Molecular Formula>
C_{7}H_{5}N

>  <Name>
BENZONITRILE

>  <SMILES>
c1ccc(cc1)C#N

>  <logK (1-OCTANOL)>
4.46

>  <logK (BENZONITRILE)>
5.357

>  <logK (CARBON TETRACHLORIDE)>
4.85

>  <logK (CHLOROFORM)>
5.75

>  <logK (ETHYLENE GLYCOL)>
4.26

>  <logK (HEPTANE)>
3.907

>  <logK (HEXADECANE)>
4.004

>  <logK (TOLUENE)>
5.283

>  <mean polarizability>
12.92

>  <dipole moment>
4.63387051689

>  <experimental polarizability source>
@Article{Bosque2002, Title = {Polarizabilities of Solvents from the Chemical Composition}, Author = {Bosque, Ramon and Sales, Joaquim}, Journal = {Journal of Chemical Information and Computer Sciences}, Year = {2002}, Note = {PMID: 12377003}, Number = {5}, Pages = {1154-1163}, Volume = {42}, Doi = {10.1021/ci025528x}, Url = {https://doi.org/10.1021/ci025528x}}

>  <Formula>
C7H5N

$$$$
220
 OpenBabel08101817183D

 17 17  0  0  0  0  0  0  0  0999 V2000
   -1.0040   -0.9125    0.0187 C   0  0  0  0  0  0  0  0  0  0  0  0
    0.3618   -1.2264   -0.6038 C   0  0  0  0  0  0  0  0  0  0  0  0
    1.4637   -0.3819    0.0532 C   0  0  0  0  0  0  0  0  0  0  0  0
    1.1958    1.0595    0.0617 N   0  0  0  0  0  0  0  0  0  0  0  0
   -0.1209    1.3731    0.6253 C   0  0  0  0  0  0  0  0  0  0  0  0
   -1.2828    0.5950   -0.0101 C   0  0  0  0  0  0  0  0  0  0  0  0
   -1.0103   -1.2597    1.0665 H   0  0  0  0  0  0  0  0  0  0  0  0
   -1.8028   -1.4657   -0.4969 H   0  0  0  0  0  0  0  0  0  0  0  0
    0.5971   -2.2980   -0.5056 H   0  0  0  0  0  0  0  0  0  0  0  0
    0.3344   -1.0051   -1.6846 H   0  0  0  0  0  0  0  0  0  0  0  0
    1.5842   -0.6995    1.1040 H   0  0  0  0  0  0  0  0  0  0  0  0
    2.4326   -0.5510   -0.4387 H   0  0  0  0  0  0  0  0  0  0  0  0
    1.2479    1.4180   -0.8937 H   0  0  0  0  0  0  0  0  0  0  0  0
   -0.0792    1.1429    1.7045 H   0  0  0  0  0  0  0  0  0  0  0  0
   -0.2836    2.4575    0.5418 H   0  0  0  0  0  0  0  0  0  0  0  0
   -2.2241    0.8268    0.5127 H   0  0  0  0  0  0  0  0  0  0  0  0
   -1.4098    0.9269   -1.0549 H   0  0  0  0  0  0  0  0  0  0  0  0
  1  7  1  0  0  0  0
  2  9  1  0  0  0  0
  2  1  1  0  0  0  0
  2  3  1  0  0  0  0
  3  4  1  0  0  0  0
  3 11  1  0  0  0  0
  4  5  1  0  0  0  0
  5 14  1  0  0  0  0
  6  1  1  0  0  0  0
  6 16  1  0  0  0  0
  6  5  1  0  0  0  0
  8  1  1  0  0  0  0
 10  2  1  0  0  0  0
 12  3  1  0  0  0  0
 13  4  1  0  0  0  0
 15  5  1  0  0  0  0
 17  6  1  0  0  0  0
M  END
>  <Charge>
0.0

>  <InChI>
1/C5H11N/c1-2-4-6-5-3-1/h6H,1-5H2

>  <Molecular Formula>
C_{5}H_{11}N

>  <Name>
PIPERIDINE

>  <SMILES>
C1CCNCC1

>  <logK (1-OCTANOL)>
4.04

>  <logK (CHLOROFORM)>
4.67

>  <logK (HEPTANE)>
3.178

>  <logK (TETRAHYDROFURAN)>
3.83

>  <mean polarizability>
10.51

>  <dipole moment>
1.14266548693

$$$$
221
 OpenBabel08101817183D

 17 17  0  0  0  0  0  0  0  0999 V2000
    1.8190    0.1303   -0.3503 C   0  0  0  0  0  0  0  0  0  0  0  0
    0.8078   -0.6263    0.3878 N   0  0  0  0  0  0  0  0  0  0  0  0
    0.0226    0.2228    1.2959 C   0  0  0  0  0  0  0  0  0  0  0  0
   -1.1012    0.8790    0.4467 C   0  0  0  0  0  0  0  0  0  0  0  0
   -1.2652   -0.0800   -0.7604 C   0  0  0  0  0  0  0  0  0  0  0  0
   -0.2203   -1.1989   -0.4937 C   0  0  0  0  0  0  0  0  0  0  0  0
    1.4199    0.9673   -0.9610 H   0  0  0  0  0  0  0  0  0  0  0  0
    2.3595   -0.5492   -1.0224 H   0  0  0  0  0  0  0  0  0  0  0  0
    2.5468    0.5474    0.3581 H   0  0  0  0  0  0  0  0  0  0  0  0
   -0.4232   -0.4233    2.0686 H   0  0  0  0  0  0  0  0  0  0  0  0
    0.6715    0.9474    1.8039 H   0  0  0  0  0  0  0  0  0  0  0  0
   -0.8092    1.8835    0.1140 H   0  0  0  0  0  0  0  0  0  0  0  0
   -2.0278    0.9906    1.0242 H   0  0  0  0  0  0  0  0  0  0  0  0
   -1.0564    0.4380   -1.7053 H   0  0  0  0  0  0  0  0  0  0  0  0
   -2.2807   -0.4890   -0.8378 H   0  0  0  0  0  0  0  0  0  0  0  0
    0.2357   -1.6030   -1.4063 H   0  0  0  0  0  0  0  0  0  0  0  0
   -0.6988   -2.0366    0.0379 H   0  0  0  0  0  0  0  0  0  0  0  0
  1  9  1  0  0  0  0
  1  2  1  0  0  0  0
  2  3  1  0  0  0  0
  3 11  1  0  0  0  0
  3 10  1  0  0  0  0
  4 13  1  0  0  0  0
  4  3  1  0  0  0  0
  5  6  1  0  0  0  0
  5  4  1  0  0  0  0
  6 17  1  0  0  0  0
  6  2  1  0  0  0  0
  7  1  1  0  0  0  0
  8  1  1  0  0  0  0
 12  4  1  0  0  0  0
 14  5  1  0  0  0  0
 15  5  1  0  0  0  0
 16  6  1  0  0  0  0
M  END
>  <Charge>
0.0

>  <InChI>
1/C5H11N/c1-6-4-2-3-5-6/h2-5H2,1H3

>  <Molecular Formula>
C_{5}H_{11}N

>  <Name>
METHYLPYRROLIDINE

>  <SMILES>
CN1CCCC1

>  <logK (1-OCTANOL)>
3.64

>  <mean polarizability>
10.48

>  <dipole moment>
0.887754888443

$$$$
222
 OpenBabel08101817183D

 14 14  0  0  0  0  0  0  0  0999 V2000
    0.7160    0.9422    0.1004 C   0  0  0  0  0  0  0  0  0  0  0  0
   -0.8260    0.8197    0.2378 C   0  0  0  0  0  0  0  0  0  0  0  0
   -1.0962   -0.7041    0.1451 C   0  0  0  0  0  0  0  0  0  0  0  0
    0.0508   -1.3042   -0.5531 N   0  0  0  0  0  0  0  0  0  0  0  0
    1.2011   -0.5205   -0.0781 C   0  0  0  0  0  0  0  0  0  0  0  0
    0.9812    1.5469   -0.7774 H   0  0  0  0  0  0  0  0  0  0  0  0
    1.1769    1.4227    0.9735 H   0  0  0  0  0  0  0  0  0  0  0  0
   -1.3321    1.3508   -0.5800 H   0  0  0  0  0  0  0  0  0  0  0  0
   -1.1984    1.2465    1.1787 H   0  0  0  0  0  0  0  0  0  0  0  0
   -2.0338   -0.9541   -0.3671 H   0  0  0  0  0  0  0  0  0  0  0  0
   -1.1460   -1.1408    1.1554 H   0  0  0  0  0  0  0  0  0  0  0  0
   -0.0595   -1.1500   -1.5576 H   0  0  0  0  0  0  0  0  0  0  0  0
    2.0470   -0.6203   -0.7698 H   0  0  0  0  0  0  0  0  0  0  0  0
    1.5191   -0.9349    0.8921 H   0  0  0  0  0  0  0  0  0  0  0  0
  1  2  1  0  0  0  0
  1  7  1  0  0  0  0
  2  9  1  0  0  0  0
  3  2  1  0  0  0  0
  3 11  1  0  0  0  0
  4  5  1  0  0  0  0
  4  3  1  0  0  0  0
  5  1  1  0  0  0  0
  5 14  1  0  0  0  0
  6  1  1  0  0  0  0
  8  2  1  0  0  0  0
 10  3  1  0  0  0  0
 12  4  1  0  0  0  0
 13  5  1  0  0  0  0
M  END
>  <Charge>
0.0

>  <InChI>
1/C4H9N/c1-2-4-5-3-1/h5H,1-4H2

>  <Molecular Formula>
C_{4}H_{9}N

>  <Name>
PYRROLIDINE

>  <SMILES>
C1CCNC1

>  <logK (1-OCTANOL)>
4.07

>  <mean polarizability>
8.68

>  <dipole moment>
1.23807642497

$$$$
223
 OpenBabel08101817183D

 12 12  0  0  0  0  0  0  0  0999 V2000
   -1.2559   -0.7159    0.0058 C   0  0  0  0  0  0  0  0  0  0  0  0
   -1.2615    0.6791   -0.0158 C   0  0  0  0  0  0  0  0  0  0  0  0
   -0.0410    1.3553   -0.0211 C   0  0  0  0  0  0  0  0  0  0  0  0
    1.1738    0.6691   -0.0054 C   0  0  0  0  0  0  0  0  0  0  0  0
    1.1454   -0.7257    0.0160 C   0  0  0  0  0  0  0  0  0  0  0  0
   -0.0583   -1.4314    0.0219 C   0  0  0  0  0  0  0  0  0  0  0  0
    2.6523   -1.5975    0.0359 Cl  0  0  0  0  0  0  0  0  0  0  0  0
   -0.0236    3.0960   -0.0480 Cl  0  0  0  0  0  0  0  0  0  0  0  0
   -2.2027   -1.2556    0.0102 H   0  0  0  0  0  0  0  0  0  0  0  0
   -2.1945    1.2384   -0.0283 H   0  0  0  0  0  0  0  0  0  0  0  0
    2.1183    1.2074   -0.0097 H   0  0  0  0  0  0  0  0  0  0  0  0
   -0.0523   -2.5192    0.0386 H   0  0  0  0  0  0  0  0  0  0  0  0
  1  9  1  0  0  0  0
  1  6  2  0  0  0  0
  2  1  1  0  0  0  0
  3  2  2  0  0  0  0
  3  4  1  0  0  0  0
  4  5  2  0  0  0  0
  5  6  1  0  0  0  0
  5  7  1  0  0  0  0
  6 12  1  0  0  0  0
  8  3  1  0  0  0  0
 10  2  1  0  0  0  0
 11  4  1  0  0  0  0
M  END
>  <Charge>
0.0

>  <InChI>
1/C6H4Cl2/c7-5-2-1-3-6(8)4-5/h1-4H

>  <Molecular Formula>
C_{6}H_{4}Cl_{2}

>  <Name>
1,3-DICHLOROBENZENE

>  <SMILES>
c1cc(cc(c1)Cl)Cl

>  <logK (1-OCTANOL)>
4.13

>  <logK (CARBON TETRACHLORIDE)>
4.55

>  <logK (CHLOROFORM)>
4.59

>  <logK (HEXADECANE)>
4.39

>  <logK (HEXANE)>
4.53

>  <mean polarizability>
14.93

>  <dipole moment>
1.52626898745

$$$$
224
 OpenBabel08101817183D

 18 17  0  0  0  0  0  0  0  0999 V2000
    1.7028   -0.3437    0.9139 C   0  0  0  0  0  0  0  0  0  0  0  0
    1.0319   -0.2430   -0.4575 C   0  0  0  0  0  0  0  0  0  0  0  0
   -0.4846    0.0443   -0.4666 C   0  0  0  0  0  0  0  0  0  0  0  0
   -0.8114    1.4039    0.1619 C   0  0  0  0  0  0  0  0  0  0  0  0
   -1.2815   -1.0726    0.2050 C   0  0  0  0  0  0  0  0  0  0  0  0
   -0.9373    0.0361   -1.8426 O   0  0  0  0  0  0  0  0  0  0  0  0
    1.6027    0.5853    1.4913 H   0  0  0  0  0  0  0  0  0  0  0  0
    1.2807   -1.1607    1.5143 H   0  0  0  0  0  0  0  0  0  0  0  0
    2.7768   -0.5435    0.8013 H   0  0  0  0  0  0  0  0  0  0  0  0
    1.5250    0.5542   -1.0413 H   0  0  0  0  0  0  0  0  0  0  0  0
    1.1875   -1.1774   -1.0183 H   0  0  0  0  0  0  0  0  0  0  0  0
   -1.8846    1.6118    0.0630 H   0  0  0  0  0  0  0  0  0  0  0  0
   -0.2570    2.2095   -0.3431 H   0  0  0  0  0  0  0  0  0  0  0  0
   -0.5517    1.4356    1.2286 H   0  0  0  0  0  0  0  0  0  0  0  0
   -1.0521   -2.0402   -0.2603 H   0  0  0  0  0  0  0  0  0  0  0  0
   -2.3567   -0.8835    0.0907 H   0  0  0  0  0  0  0  0  0  0  0  0
   -1.0550   -1.1344    1.2765 H   0  0  0  0  0  0  0  0  0  0  0  0
   -0.4353    0.7185   -2.3171 H   0  0  0  0  0  0  0  0  0  0  0  0
  1  7  1  0  0  0  0
  1  8  1  0  0  0  0
  2  1  1  0  0  0  0
  3  2  1  0  0  0  0
  3  4  1  0  0  0  0
  3  5  1  0  0  0  0
  4 14  1  0  0  0  0
  5 17  1  0  0  0  0
  6  3  1  0  0  0  0
  9  1  1  0  0  0  0
 10  2  1  0  0  0  0
 11  2  1  0  0  0  0
 12  4  1  0  0  0  0
 13  4  1  0  0  0  0
 15  5  1  0  0  0  0
 16  5  1  0  0  0  0
 18  6  1  0  0  0  0
M  END
>  <Charge>
0.0

>  <InChI>
1/C5H12O/c1-4-5(2,3)6/h6H,4H2,1-3H3

>  <Molecular Formula>
C_{5}H_{12}O

>  <Name>
TERT-AMYL ALCOHOL

>  <SMILES>
CCC(C)(C)O

>  <logK (CARBON TETRACHLORIDE)>
3.204

>  <logK (CHLOROFORM)>
3.741

>  <logK (DECANE)>
2.922

>  <logK (HEXADECANE)>
2.63

>  <logK (OCTANE)>
2.922

>  <logK (TERT-AMYL ALCOHOL)>
3.979

>  <mean polarizability>
10.62

>  <dipole moment>
1.59089980468

>  <Formula>
C5H12O

$$$$
225
 OpenBabel08101817183D

 21 20  0  0  1  0  0  0  0  0999 V2000
   -0.9917   -1.1371    1.0471 C   0  0  0  0  0  0  0  0  0  0  0  0
   -1.1418    0.0735    0.1191 C   0  0  0  0  0  0  0  0  0  0  0  0
   -2.3251   -0.1296   -0.8342 C   0  0  0  0  0  0  0  0  0  0  0  0
    0.1274    0.4049   -0.6876 C   0  0  0  0  0  0  0  0  0  0  0  0
    1.3799    0.7954    0.1216 C   0  0  1  0  0  0  0  0  0  0  0  0
    2.3075   -0.3701    0.4321 C   0  0  0  0  0  0  0  0  0  0  0  0
    2.1954    1.7390   -0.6019 O   0  0  0  0  0  0  0  0  0  0  0  0
   -1.9456   -1.3619    1.5449 H   0  0  0  0  0  0  0  0  0  0  0  0
   -0.2442   -0.9691    1.8332 H   0  0  0  0  0  0  0  0  0  0  0  0
   -0.6929   -2.0331    0.4816 H   0  0  0  0  0  0  0  0  0  0  0  0
   -1.3650    0.9525    0.7507 H   0  0  0  0  0  0  0  0  0  0  0  0
   -2.4751    0.7454   -1.4824 H   0  0  0  0  0  0  0  0  0  0  0  0
   -2.1566   -1.0012   -1.4848 H   0  0  0  0  0  0  0  0  0  0  0  0
   -3.2580   -0.3040   -0.2800 H   0  0  0  0  0  0  0  0  0  0  0  0
    0.3722   -0.4344   -1.3612 H   0  0  0  0  0  0  0  0  0  0  0  0
   -0.1178    1.2546   -1.3471 H   0  0  0  0  0  0  0  0  0  0  0  0
    1.0506    1.2619    1.0719 H   0  0  0  0  0  0  0  0  0  0  0  0
    2.6757   -0.8076   -0.5064 H   0  0  0  0  0  0  0  0  0  0  0  0
    1.7938   -1.1535    1.0006 H   0  0  0  0  0  0  0  0  0  0  0  0
    3.1724   -0.0257    1.0129 H   0  0  0  0  0  0  0  0  0  0  0  0
    1.6390    2.4998   -0.8301 H   0  0  0  0  0  0  0  0  0  0  0  0
  1  8  1  0  0  0  0
  1  9  1  0  0  0  0
  2 11  1  0  0  0  0
  2  1  1  0  0  0  0
  3 14  1  0  0  0  0
  3  2  1  0  0  0  0
  4  2  1  0  0  0  0
  4  5  1  0  0  0  0
  5  6  1  0  0  0  0
  5 17  1  1  0  0  0
  6 19  1  0  0  0  0
  6 20  1  0  0  0  0
  7  5  1  0  0  0  0
 10  1  1  0  0  0  0
 12  3  1  0  0  0  0
 13  3  1  0  0  0  0
 15  4  1  0  0  0  0
 16  4  1  0  0  0  0
 18  6  1  0  0  0  0
 21  7  1  0  0  0  0
M  END
>  <Charge>
0.0

>  <InChI>
1/C6H14O/c1-5(2)4-6(3)7/h5-7H,4H2,1-3H3

>  <Molecular Formula>
C_{6}H_{14}O

>  <Name>
4-METHYLPENTAN-2-OL

>  <SMILES>
CC(C)CC(C)O

>  <logK (4-METHYLPENTAN-2-OL)>
4.62

>  <logK (CARBON TETRACHLORIDE)>
3.835

>  <logK (CHLOROFORM)>
4.312

>  <logK (DECANE)>
3.34

>  <logK (OCTANE)>
3.391

>  <Formula>
C6H14O

>  <dipole moment>
1.72536752464

>  <mean polarizability>
12.56

$$$$
226
 OpenBabel08101817183D

  3  2  0  0  0  0  0  0  0  0999 V2000
   -0.0153    0.6280    0.0000 S   0  0  0  0  0  0  0  0  0  0  0  0
    0.9761   -0.2903   -0.0000 H   0  0  0  0  0  0  0  0  0  0  0  0
   -0.9609   -0.3375   -0.0000 H   0  0  0  0  0  0  0  0  0  0  0  0
  1  2  1  0  0  0  0
  1  3  1  0  0  0  0
M  END
>  <Charge>
0.0

>  <InChI>
1/H2S/h1H2

>  <Molecular Formula>
H_{2}S

>  <Name>
HYDROGEN SULFIDE

>  <SMILES>
S

>  <logK (4-FORMYLMORPHOLINE)>
1.33

>  <logK (ACETIC ACID)>
1.096

>  <logK (ACETONE)>
1.39

>  <logK (BROMOBENZENE)>
0.95

>  <logK (CHLOROBENZENE)>
1.1

>  <logK (DIMETHYLFORMAMIDE)>
1.61

>  <logK (ETHYLENE GLYCOL)>
0.729

>  <logK (N,N-DIMETHYLACETAMIDE)>
1.65

>  <logK (N-METHYLPYRROLIDONE)>
1.65

>  <logK (PHENYLAMINE)>
1.248

>  <logK (PROPYLENE CARBONATE)>
1.14

>  <logK (SULFOLANE)>
1.173

>  <logK (TETRAETHYLENE GLYCOL DIMETHYL ETHER)>
1.366

>  <logK (TRIBUTYL PHOSPHATE)>
1.27

>  <mean polarizability>
3.51

>  <dipole moment>
0.96669703874

$$$$
227
 OpenBabel08101817183D

 18 17  0  0  0  0  0  0  0  0999 V2000
   -3.0111    0.0340   -0.4036 C   0  0  0  0  0  0  0  0  0  0  0  0
   -1.5798    0.5657   -0.3390 C   0  0  0  0  0  0  0  0  0  0  0  0
   -0.5249   -0.5279   -0.5731 C   0  0  0  0  0  0  0  0  0  0  0  0
    0.8828   -0.0129   -0.5502 C   0  0  0  0  0  0  0  0  0  0  0  0
    1.8237   -0.3863    0.3246 C   0  0  0  0  0  0  0  0  0  0  0  0
    3.2367    0.1367    0.3612 C   0  0  0  0  0  0  0  0  0  0  0  0
   -3.1805   -0.7432    0.3555 H   0  0  0  0  0  0  0  0  0  0  0  0
   -3.7460    0.8318   -0.2322 H   0  0  0  0  0  0  0  0  0  0  0  0
   -3.2260   -0.4124   -1.3853 H   0  0  0  0  0  0  0  0  0  0  0  0
   -1.4451    1.3640   -1.0866 H   0  0  0  0  0  0  0  0  0  0  0  0
   -1.3958    1.0328    0.6408 H   0  0  0  0  0  0  0  0  0  0  0  0
   -0.6392   -1.3183    0.1859 H   0  0  0  0  0  0  0  0  0  0  0  0
   -0.7298   -1.0024   -1.5496 H   0  0  0  0  0  0  0  0  0  0  0  0
    1.1325    0.7387   -1.3103 H   0  0  0  0  0  0  0  0  0  0  0  0
    1.5540   -1.1351    1.0772 H   0  0  0  0  0  0  0  0  0  0  0  0
    3.2643    1.2224    0.5337 H   0  0  0  0  0  0  0  0  0  0  0  0
    3.7648   -0.0525   -0.5846 H   0  0  0  0  0  0  0  0  0  0  0  0
    3.8195   -0.3355    1.1609 H   0  0  0  0  0  0  0  0  0  0  0  0
  1  2  1  0  0  0  0
  1  8  1  0  0  0  0
  1  7  1  0  0  0  0
  2 11  1  0  0  0  0
  3  4  1  0  0  0  0
  3  2  1  0  0  0  0
  3 12  1  0  0  0  0
  4  5  2  0  0  0  0
  5  6  1  0  0  0  0
  5 15  1  0  0  0  0
  6 16  1  0  0  0  0
  6 18  1  0  0  0  0
  9  1  1  0  0  0  0
 10  2  1  0  0  0  0
 13  3  1  0  0  0  0
 14  4  1  0  0  0  0
 17  6  1  0  0  0  0
M  END
>  <Charge>
0.0

>  <InChI>
1/C6H12/c1-3-5-6-4-2/h3,5H,4,6H2,1-2H3/b5-3+

>  <Molecular Formula>
C_{6}H_{12}

>  <Name>
(2E)-2-HEXENE

>  <SMILES>
CCC/C=C/C

>  <logK (1-HEXADECENE)>
2.61755371974

>  <logK (ETHYLENE GLYCOL)>
0.79

>  <mean polarizability>
11.99

>  <dipole moment>
0.110715669483

$$$$
228
 OpenBabel08101817183D

 18 17  0  0  0  0  0  0  0  0999 V2000
   -2.6412    0.6379    0.5667 C   0  0  0  0  0  0  0  0  0  0  0  0
   -1.5390    0.1976   -0.3958 C   0  0  0  0  0  0  0  0  0  0  0  0
   -0.3529   -0.4729    0.3178 C   0  0  0  0  0  0  0  0  0  0  0  0
    0.6965   -0.9669   -0.6328 C   0  0  0  0  0  0  0  0  0  0  0  0
    1.9864   -0.6065   -0.6985 C   0  0  0  0  0  0  0  0  0  0  0  0
    2.7108    0.3724    0.1742 C   0  0  0  0  0  0  0  0  0  0  0  0
   -3.4740    1.1164    0.0339 H   0  0  0  0  0  0  0  0  0  0  0  0
   -2.2607    1.3588    1.3048 H   0  0  0  0  0  0  0  0  0  0  0  0
   -3.0490   -0.2186    1.1228 H   0  0  0  0  0  0  0  0  0  0  0  0
   -1.1688    1.0640   -0.9656 H   0  0  0  0  0  0  0  0  0  0  0  0
   -1.9525   -0.5013   -1.1406 H   0  0  0  0  0  0  0  0  0  0  0  0
   -0.7399   -1.3271    0.9019 H   0  0  0  0  0  0  0  0  0  0  0  0
    0.0737    0.2280    1.0505 H   0  0  0  0  0  0  0  0  0  0  0  0
    0.3452   -1.7022   -1.3646 H   0  0  0  0  0  0  0  0  0  0  0  0
    2.5979   -1.0765   -1.4750 H   0  0  0  0  0  0  0  0  0  0  0  0
    2.0631    0.8391    0.9253 H   0  0  0  0  0  0  0  0  0  0  0  0
    3.1619    1.1749   -0.4298 H   0  0  0  0  0  0  0  0  0  0  0  0
    3.5423   -0.1168    0.7048 H   0  0  0  0  0  0  0  0  0  0  0  0
  1  9  1  0  0  0  0
  1  8  1  0  0  0  0
  2  3  1  0  0  0  0
  2  1  1  0  0  0  0
  3 12  1  0  0  0  0
  3 13  1  0  0  0  0
  4  3  1  0  0  0  0
  5  4  2  0  0  0  0
  5  6  1  0  0  0  0
  6 18  1  0  0  0  0
  6 16  1  0  0  0  0
  7  1  1  0  0  0  0
 10  2  1  0  0  0  0
 11  2  1  0  0  0  0
 14  4  1  0  0  0  0
 15  5  1  0  0  0  0
 17  6  1  0  0  0  0
M  END
>  <Charge>
0.0

>  <InChI>
1/C6H12/c1-3-5-6-4-2/h3,5H,4,6H2,1-2H3/b5-3-

>  <Molecular Formula>
C_{6}H_{12}

>  <Name>
(Z)-2-HEXENE

>  <SMILES>
CCC/C=C\C

>  <logK (1-HEXADECENE)>
2.61717225772

>  <logK (ETHYLENE GLYCOL)>
0.91

>  <logK (FORMAMIDE)>
0.78

>  <mean polarizability>
11.89

>  <dipole moment>
0.268450997148

$$$$
229
 OpenBabel08101817183D

 24 23  0  0  0  0  0  0  0  0999 V2000
    2.4072    0.5478   -0.5838 C   0  0  0  0  0  0  0  0  0  0  0  0
    1.5886   -0.2570    0.4083 C   0  0  0  0  0  0  0  0  0  0  0  0
    1.9951   -0.3922    1.6787 C   0  0  0  0  0  0  0  0  0  0  0  0
    0.3295   -0.9301   -0.0888 C   0  0  0  0  0  0  0  0  0  0  0  0
   -0.9784   -0.0773   -0.1034 C   0  0  0  0  0  0  0  0  0  0  0  0
   -2.0827   -0.9377   -0.7397 C   0  0  0  0  0  0  0  0  0  0  0  0
   -1.3881    0.2868    1.3309 C   0  0  0  0  0  0  0  0  0  0  0  0
   -0.8114    1.2090   -0.9265 C   0  0  0  0  0  0  0  0  0  0  0  0
    3.4130    0.1179   -0.6951 H   0  0  0  0  0  0  0  0  0  0  0  0
    2.5369    1.5889   -0.2569 H   0  0  0  0  0  0  0  0  0  0  0  0
    1.9464    0.5674   -1.5780 H   0  0  0  0  0  0  0  0  0  0  0  0
    1.4358   -0.9924    2.3971 H   0  0  0  0  0  0  0  0  0  0  0  0
    2.9051    0.0883    2.0423 H   0  0  0  0  0  0  0  0  0  0  0  0
    0.1289   -1.8166    0.5320 H   0  0  0  0  0  0  0  0  0  0  0  0
    0.5021   -1.2950   -1.1152 H   0  0  0  0  0  0  0  0  0  0  0  0
   -3.0401   -0.3971   -0.7510 H   0  0  0  0  0  0  0  0  0  0  0  0
   -2.2311   -1.8725   -0.1800 H   0  0  0  0  0  0  0  0  0  0  0  0
   -1.8326   -1.2016   -1.7776 H   0  0  0  0  0  0  0  0  0  0  0  0
   -2.3173    0.8744    1.3276 H   0  0  0  0  0  0  0  0  0  0  0  0
   -0.6112    0.8796    1.8316 H   0  0  0  0  0  0  0  0  0  0  0  0
   -1.5640   -0.6164    1.9336 H   0  0  0  0  0  0  0  0  0  0  0  0
   -0.0586    1.8767   -0.4871 H   0  0  0  0  0  0  0  0  0  0  0  0
   -1.7617    1.7607   -0.9661 H   0  0  0  0  0  0  0  0  0  0  0  0
   -0.5113    0.9886   -1.9613 H   0  0  0  0  0  0  0  0  0  0  0  0
  1 10  1  0  0  0  0
  1  2  1  0  0  0  0
  2  3  2  0  0  0  0
  3 13  1  0  0  0  0
  3 12  1  0  0  0  0
  4  2  1  0  0  0  0
  4 14  1  0  0  0  0
  5  4  1  0  0  0  0
  5  7  1  0  0  0  0
  6 17  1  0  0  0  0
  6  5  1  0  0  0  0
  7 20  1  0  0  0  0
  7 21  1  0  0  0  0
  8 22  1  0  0  0  0
  8  5  1  0  0  0  0
  9  1  1  0  0  0  0
 11  1  1  0  0  0  0
 15  4  1  0  0  0  0
 16  6  1  0  0  0  0
 18  6  1  0  0  0  0
 19  7  1  0  0  0  0
 23  8  1  0  0  0  0
 24  8  1  0  0  0  0
M  END
>  <Charge>
0.0

>  <InChI>
1/C8H16/c1-7(2)6-8(3,4)5/h1,6H2,2-5H3

>  <Molecular Formula>
C_{8}H_{16}

>  <Name>
2,4,4-TRIMETHYLPENT-1-ENE

>  <SMILES>
CC(=C)CC(C)(C)C

>  <logK (1-CHLOROBUTANE)>
3.484

>  <logK (BUTANONE)>
3.18

>  <logK (ETHYLENE GLYCOL)>
1.08

>  <logK (FORMAMIDE)>
0.95

>  <dipole moment>
0.467695266497

>  <mean polarizability>
15.3

$$$$
230
 OpenBabel08101817183D

 12 12  0  0  0  0  0  0  0  0999 V2000
   -1.2795    0.6161   -0.0005 C   0  0  0  0  0  0  0  0  0  0  0  0
   -1.1723   -0.7748    0.0657 C   0  0  0  0  0  0  0  0  0  0  0  0
    0.0816   -1.3897    0.0666 C   0  0  0  0  0  0  0  0  0  0  0  0
    1.2123   -0.5837    0.0002 C   0  0  0  0  0  0  0  0  0  0  0  0
    1.1374    0.8028   -0.0665 C   0  0  0  0  0  0  0  0  0  0  0  0
   -0.1252    1.3996   -0.0662 C   0  0  0  0  0  0  0  0  0  0  0  0
    2.4364   -1.1732    0.0008 F   0  0  0  0  0  0  0  0  0  0  0  0
   -2.2610    1.0887   -0.0008 H   0  0  0  0  0  0  0  0  0  0  0  0
   -2.0696   -1.3914    0.1174 H   0  0  0  0  0  0  0  0  0  0  0  0
    0.1910   -2.4718    0.1188 H   0  0  0  0  0  0  0  0  0  0  0  0
    2.0516    1.3920   -0.1175 H   0  0  0  0  0  0  0  0  0  0  0  0
   -0.2027    2.4856   -0.1181 H   0  0  0  0  0  0  0  0  0  0  0  0
  1  2  2  0  0  0  0
  2  3  1  0  0  0  0
  2  9  1  0  0  0  0
  3 10  1  0  0  0  0
  4  7  1  0  0  0  0
  4  3  2  0  0  0  0
  5  6  2  0  0  0  0
  5  4  1  0  0  0  0
  6  1  1  0  0  0  0
  8  1  1  0  0  0  0
 11  5  1  0  0  0  0
 12  6  1  0  0  0  0
M  END
>  <Charge>
0.0

>  <InChI>
1/C6H5F/c7-6-4-2-1-3-5-6/h1-5H

>  <Molecular Formula>
C_{6}H_{5}F

>  <Name>
FLUOROBENZENE

>  <SMILES>
c1ccc(cc1)F

>  <logK (1,4-DIOXANE)>
3.44

>  <logK (2-BUTOXYETHANOL)>
3.15

>  <logK (2-ETHOXYETHANOL)>
3.214

>  <logK (2-ISOPROPOXYETHANOL)>
3.19575592044

>  <logK (2-PROPOXYETHANOL)>
3.17341226937

>  <logK (BENZONITRILE)>
3.324

>  <logK (CHLOROFORM)>
3.44

>  <logK (DECANE)>
2.551

>  <logK (DIMETHYLFORMAMIDE)>
3.48

>  <logK (ETHYLENE GLYCOL)>
2.13

>  <logK (FLUOROBENZENE)>
3.4

>  <logK (FORMAMIDE)>
2.05

>  <logK (HEPTANE)>
3.027

>  <logK (HEXADECANE)>
2.84

>  <logK (HEXANE)>
3.042

>  <logK (METHOXYETHANOL)>
3.233

>  <logK (PYRIDINE)>
3.439

>  <logK (TETRAHYDROFURAN)>
3.62

>  <mean polarizability>
10.22

>  <dipole moment>
1.45091368152

>  <Formula>
C6H5F

$$$$
231
 OpenBabel08101817183D

 12 12  0  0  0  0  0  0  0  0999 V2000
   -1.4263    0.3405   -0.0122 C   0  0  0  0  0  0  0  0  0  0  0  0
   -1.0253   -0.9961    0.0254 C   0  0  0  0  0  0  0  0  0  0  0  0
    0.3311   -1.3293    0.0373 C   0  0  0  0  0  0  0  0  0  0  0  0
    1.2760   -0.3046    0.0109 C   0  0  0  0  0  0  0  0  0  0  0  0
    0.8964    1.0362   -0.0268 C   0  0  0  0  0  0  0  0  0  0  0  0
   -0.4642    1.3517   -0.0382 C   0  0  0  0  0  0  0  0  0  0  0  0
    3.1351   -0.7485    0.0268 Br  0  0  0  0  0  0  0  0  0  0  0  0
   -2.4860    0.5935   -0.0213 H   0  0  0  0  0  0  0  0  0  0  0  0
   -1.7696   -1.7923    0.0459 H   0  0  0  0  0  0  0  0  0  0  0  0
    0.6497   -2.3696    0.0667 H   0  0  0  0  0  0  0  0  0  0  0  0
    1.6511    1.8203   -0.0469 H   0  0  0  0  0  0  0  0  0  0  0  0
   -0.7681    2.3982   -0.0676 H   0  0  0  0  0  0  0  0  0  0  0  0
  1  2  2  0  0  0  0
  2  3  1  0  0  0  0
  2  9  1  0  0  0  0
  3 10  1  0  0  0  0
  4  7  1  0  0  0  0
  4  3  2  0  0  0  0
  5  4  1  0  0  0  0
  6  5  2  0  0  0  0
  6  1  1  0  0  0  0
  8  1  1  0  0  0  0
 11  5  1  0  0  0  0
 12  6  1  0  0  0  0
M  END
>  <Charge>
0.0

>  <InChI>
1/C6H5Br/c7-6-4-2-1-3-5-6/h1-5H

>  <Molecular Formula>
C_{6}H_{5}Br

>  <Name>
BROMOBENZENE

>  <SMILES>
c1ccc(cc1)Br

>  <logK (1,4-DIOXANE)>
4.73

>  <logK (2-BUTOXYETHANOL)>
4.25

>  <logK (2-ETHOXYETHANOL)>
4.359

>  <logK (2-ISOPROPOXYETHANOL)>
4.34056772738

>  <logK (2-PROPOXYETHANOL)>
4.33625118484

>  <logK (BROMOBENZENE)>
4.62

>  <logK (CARBON TETRACHLORIDE)>
4.65

>  <logK (CHLOROFORM)>
4.7

>  <logK (DECANE)>
3.98

>  <logK (DIMETHYLFORMAMIDE)>
4.55

>  <logK (ETHYLENE GLYCOL)>
3.22

>  <logK (FORMAMIDE)>
3.02

>  <logK (HEPTANE)>
4.192

>  <logK (HEXADECANE)>
4.035

>  <logK (HEXANE)>
4.148

>  <logK (METHOXYETHANOL)>
4.211

>  <logK (PYRIDINE)>
4.644

>  <logK (TETRAHYDROFURAN)>
4.73

>  <mean polarizability>
13.25

>  <dipole moment>
1.64978243682

>  <experimental polarizability source>
@Article{Bosque2002, Title = {Polarizabilities of Solvents from the Chemical Composition}, Author = {Bosque, Ramon and Sales, Joaquim}, Journal = {Journal of Chemical Information and Computer Sciences}, Year = {2002}, Note = {PMID: 12377003}, Number = {5}, Pages = {1154-1163}, Volume = {42}, Doi = {10.1021/ci025528x}, Url = {https://doi.org/10.1021/ci025528x}}

>  <Formula>
C6H5Br

$$$$
232
 OpenBabel08101817183D

 14 14  0  0  0  0  0  0  0  0999 V2000
   -1.8996    0.1190   -0.0569 C   0  0  0  0  0  0  0  0  0  0  0  0
   -1.2593   -1.1147   -0.1986 C   0  0  0  0  0  0  0  0  0  0  0  0
    0.1294   -1.2089   -0.1580 C   0  0  0  0  0  0  0  0  0  0  0  0
    0.9191   -0.0576    0.0276 C   0  0  0  0  0  0  0  0  0  0  0  0
    0.2695    1.1840    0.1699 C   0  0  0  0  0  0  0  0  0  0  0  0
   -1.1200    1.2638    0.1272 C   0  0  0  0  0  0  0  0  0  0  0  0
    2.2938   -0.1439    0.0693 N   0  0  0  0  0  0  0  0  0  0  0  0
   -2.9860    0.1871   -0.0894 H   0  0  0  0  0  0  0  0  0  0  0  0
   -1.8489   -2.0207   -0.3434 H   0  0  0  0  0  0  0  0  0  0  0  0
    0.6145   -2.1805   -0.2703 H   0  0  0  0  0  0  0  0  0  0  0  0
    0.8644    2.0879    0.3145 H   0  0  0  0  0  0  0  0  0  0  0  0
   -1.5996    2.2369    0.2399 H   0  0  0  0  0  0  0  0  0  0  0  0
    2.8614    0.6787    0.2013 H   0  0  0  0  0  0  0  0  0  0  0  0
    2.7614   -1.0311   -0.0331 H   0  0  0  0  0  0  0  0  0  0  0  0
  1  6  2  0  0  0  0
  2  3  2  0  0  0  0
  2  1  1  0  0  0  0
  3  4  1  0  0  0  0
  4  7  1  0  0  0  0
  4  5  2  0  0  0  0
  5 11  1  0  0  0  0
  6  5  1  0  0  0  0
  6 12  1  0  0  0  0
  7 13  1  0  0  0  0
  8  1  1  0  0  0  0
  9  2  1  0  0  0  0
 10  3  1  0  0  0  0
 14  7  1  0  0  0  0
M  END
>  <Charge>
0.0

>  <InChI>
1/C6H7N/c7-6-4-2-1-3-5-6/h1-5H,7H2

>  <Molecular Formula>
C_{6}H_{7}N

>  <Name>
PHENYLAMINE

>  <SMILES>
c1ccc(cc1)N

>  <logK (1-CHLOROBUTANE)>
4.887

>  <logK (2,2,4-TRIMETHYLPENTANE)>
3.811

>  <logK (ACETONE)>
5.75

>  <logK (BROMOBENZENE)>
5.16

>  <logK (CHLOROBENZENE)>
5.2

>  <logK (CHLOROFORM)>
5.65

>  <logK (DICHLOROETHANE)>
5.75

>  <logK (ETHYL ACETATE)>
5.49

>  <logK (ETHYLENE GLYCOL)>
5.52

>  <logK (HEPTANE)>
3.943

>  <logK (HEXADECANE)>
3.993

>  <logK (HEXANE)>
3.98

>  <logK (OCTANE)>
3.547

>  <logK (PHENYLAMINE)>
5.478

>  <logK (TOLUENE)>
4.97

>  <mean polarizability>
12.02

>  <dipole moment>
1.99734973855

>  <Formula>
C6H7N

$$$$
233
 OpenBabel08101817183D

 14 14  0  0  0  0  0  0  0  0999 V2000
   -1.8556    0.1458   -0.4294 C   0  0  0  0  0  0  0  0  0  0  0  0
   -1.4080   -0.9077    0.3724 C   0  0  0  0  0  0  0  0  0  0  0  0
   -0.0558   -1.0207    0.6899 C   0  0  0  0  0  0  0  0  0  0  0  0
    0.8274   -0.0649    0.1914 C   0  0  0  0  0  0  0  0  0  0  0  0
    0.4032    0.9936   -0.6096 C   0  0  0  0  0  0  0  0  0  0  0  0
   -0.9520    1.0932   -0.9186 C   0  0  0  0  0  0  0  0  0  0  0  0
    2.2684   -0.1784    0.5250 N   0  0  0  0  0  0  0  0  0  0  0  0
    3.0278    0.6802    0.0714 O   0  0  0  0  0  0  0  0  0  0  0  0
    2.6167   -1.1237    1.2350 O   0  0  0  0  0  0  0  0  0  0  0  0
   -2.9143    0.2289   -0.6744 H   0  0  0  0  0  0  0  0  0  0  0  0
   -2.1142   -1.6450    0.7526 H   0  0  0  0  0  0  0  0  0  0  0  0
    0.3263   -1.8276    1.3110 H   0  0  0  0  0  0  0  0  0  0  0  0
    1.1332    1.7130   -0.9732 H   0  0  0  0  0  0  0  0  0  0  0  0
   -1.3033    1.9135   -1.5434 H   0  0  0  0  0  0  0  0  0  0  0  0
  1  2  2  0  0  0  0
  2  3  1  0  0  0  0
  2 11  1  0  0  0  0
  3 12  1  0  0  0  0
  4  7  1  0  0  0  0
  4  3  2  0  0  0  0
  5  4  1  0  0  0  0
  6  5  2  0  0  0  0
  6  1  1  0  0  0  0
  7  9  2  0  0  0  0
  8  7  2  0  0  0  0
 10  1  1  0  0  0  0
 13  5  1  0  0  0  0
 14  6  1  0  0  0  0
M  END
>  <Charge>
0.0

>  <InChI>
1/C6H5NO2/c8-7(9)6-4-2-1-3-5-6/h1-5H

>  <Molecular Formula>
C_{6}H_{5}NO_{2}

>  <Name>
NITROBENZENE

>  <SMILES>
c1ccc(cc1)[N+](=O)[O-]

>  <logK (CARBON TETRACHLORIDE)>
5.26

>  <logK (CHLOROFORM)>
5.71

>  <logK (DICHLOROETHANE)>
6.15

>  <logK (DODECANE)>
4.45

>  <logK (ETHYLENE GLYCOL)>
4.44

>  <logK (HEPTANE)>
4.5

>  <logK (HEXADECANE)>
4.46

>  <logK (HEXANE)>
4.464

>  <logK (UNDECANE)>
4.46

>  <mean polarizability>
13.11

>  <dipole moment>
4.54241032133

>  <experimental polarizability source>
@Article{Bosque2002, Title = {Polarizabilities of Solvents from the Chemical Composition}, Author = {Bosque, Ramon and Sales, Joaquim}, Journal = {Journal of Chemical Information and Computer Sciences}, Year = {2002}, Note = {PMID: 12377003}, Number = {5}, Pages = {1154-1163}, Volume = {42}, Doi = {10.1021/ci025528x}, Url = {https://doi.org/10.1021/ci025528x}}

>  <Formula>
C6H5NO2

$$$$
234
 OpenBabel08101817183D

 16 16  0  0  0  0  0  0  0  0999 V2000
   -2.2537   -0.0437   -0.0460 C   0  0  0  0  0  0  0  0  0  0  0  0
   -1.5671   -1.1002    0.5521 C   0  0  0  0  0  0  0  0  0  0  0  0
   -0.1704   -1.1316    0.5204 C   0  0  0  0  0  0  0  0  0  0  0  0
    0.5549   -0.1152   -0.1119 C   0  0  0  0  0  0  0  0  0  0  0  0
   -0.1459    0.9428   -0.7102 C   0  0  0  0  0  0  0  0  0  0  0  0
   -1.5386    0.9791   -0.6769 C   0  0  0  0  0  0  0  0  0  0  0  0
    2.0649   -0.1431   -0.1400 C   0  0  0  0  0  0  0  0  0  0  0  0
    2.6648    1.0242    0.4392 O   0  0  0  0  0  0  0  0  0  0  0  0
   -3.3432   -0.0143   -0.0217 H   0  0  0  0  0  0  0  0  0  0  0  0
   -2.1174   -1.9000    1.0482 H   0  0  0  0  0  0  0  0  0  0  0  0
    0.3657   -1.9588    0.9901 H   0  0  0  0  0  0  0  0  0  0  0  0
    0.4125    1.7429   -1.1982 H   0  0  0  0  0  0  0  0  0  0  0  0
   -2.0708    1.8062   -1.1478 H   0  0  0  0  0  0  0  0  0  0  0  0
    2.4315   -0.1608   -1.1767 H   0  0  0  0  0  0  0  0  0  0  0  0
    2.4278   -1.0618    0.3543 H   0  0  0  0  0  0  0  0  0  0  0  0
    2.2847    1.1349    1.3252 H   0  0  0  0  0  0  0  0  0  0  0  0
  1  9  1  0  0  0  0
  1  2  2  0  0  0  0
  2 10  1  0  0  0  0
  3  2  1  0  0  0  0
  3 11  1  0  0  0  0
  4  3  2  0  0  0  0
  5  6  2  0  0  0  0
  5  4  1  0  0  0  0
  6  1  1  0  0  0  0
  7  4  1  0  0  0  0
  7 15  1  0  0  0  0
  7  8  1  0  0  0  0
  8 16  1  0  0  0  0
 12  5  1  0  0  0  0
 13  6  1  0  0  0  0
 14  7  1  0  0  0  0
M  END
>  <Charge>
0.0

>  <InChI>
1/C7H8O/c8-6-7-4-2-1-3-5-7/h1-5,8H,6H2

>  <Molecular Formula>
C_{7}H_{8}O

>  <Name>
BENZYL ALCOHOL

>  <SMILES>
c1ccc(cc1)CO

>  <logK (BENZONITRILE)>
5.864

>  <logK (CARBON TETRACHLORIDE)>
4.83

>  <logK (CHLOROFORM)>
5.82

>  <logK (DICHLOROETHANE)>
5.35

>  <logK (DODECANE)>
4.09

>  <logK (ETHYLENE GLYCOL)>
6.09

>  <logK (HEXADECANE)>
4.443

>  <mean polarizability>
13.06

>  <dipole moment>
1.52892534785

>  <experimental polarizability source>
@Article{Bosque2002, Title = {Polarizabilities of Solvents from the Chemical Composition}, Author = {Bosque, Ramon and Sales, Joaquim}, Journal = {Journal of Chemical Information and Computer Sciences}, Year = {2002}, Note = {PMID: 12377003}, Number = {5}, Pages = {1154-1163}, Volume = {42}, Doi = {10.1021/ci025528x}, Url = {https://doi.org/10.1021/ci025528x}}

>  <Formula>
C7H8O

$$$$
235
 OpenBabel08101817183D

 18 19  0  0  0  0  0  0  0  0999 V2000
   -2.4754    0.5465    0.0011 C   0  0  0  0  0  0  0  0  0  0  0  0
   -2.3820   -0.8631    0.0863 C   0  0  0  0  0  0  0  0  0  0  0  0
   -1.1483   -1.4780    0.1069 C   0  0  0  0  0  0  0  0  0  0  0  0
    0.0474   -0.7154    0.0432 C   0  0  0  0  0  0  0  0  0  0  0  0
    1.3334   -1.3162    0.0621 C   0  0  0  0  0  0  0  0  0  0  0  0
    2.4754   -0.5465   -0.0011 C   0  0  0  0  0  0  0  0  0  0  0  0
    2.3820    0.8631   -0.0863 C   0  0  0  0  0  0  0  0  0  0  0  0
    1.1483    1.4780   -0.1069 C   0  0  0  0  0  0  0  0  0  0  0  0
   -0.0474    0.7154   -0.0432 C   0  0  0  0  0  0  0  0  0  0  0  0
   -1.3334    1.3162   -0.0621 C   0  0  0  0  0  0  0  0  0  0  0  0
   -3.4560    1.0223   -0.0144 H   0  0  0  0  0  0  0  0  0  0  0  0
   -3.2914   -1.4620    0.1360 H   0  0  0  0  0  0  0  0  0  0  0  0
   -1.0739   -2.5648    0.1727 H   0  0  0  0  0  0  0  0  0  0  0  0
    1.4031   -2.4034    0.1279 H   0  0  0  0  0  0  0  0  0  0  0  0
    3.4560   -1.0222    0.0144 H   0  0  0  0  0  0  0  0  0  0  0  0
    3.2914    1.4620   -0.1360 H   0  0  0  0  0  0  0  0  0  0  0  0
    1.0739    2.5648   -0.1727 H   0  0  0  0  0  0  0  0  0  0  0  0
   -1.4031    2.4034   -0.1279 H   0  0  0  0  0  0  0  0  0  0  0  0
  1  2  2  0  0  0  0
  2  3  1  0  0  0  0
  2 12  1  0  0  0  0
  3 13  1  0  0  0  0
  4  5  1  0  0  0  0
  4  3  2  0  0  0  0
  5 14  1  0  0  0  0
  6 15  1  0  0  0  0
  6  5  2  0  0  0  0
  7  6  1  0  0  0  0
  8  7  2  0  0  0  0
  8  9  1  0  0  0  0
  9  4  1  0  0  0  0
 10  9  2  0  0  0  0
 10  1  1  0  0  0  0
 11  1  1  0  0  0  0
 16  7  1  0  0  0  0
 17  8  1  0  0  0  0
 18 10  1  0  0  0  0
M  END
>  <Charge>
0.0

>  <InChI>
1/C10H8/c1-2-6-10-8-4-3-7-9(10)5-1/h1-8H

>  <Molecular Formula>
C_{10}H_{8}

>  <Name>
NAPHTHALENE

>  <SMILES>
c1ccc2ccccc2c1

>  <logK (2-BUTOXYETHANOL)>
5.41

>  <logK (CARBON TETRACHLORIDE)>
5.59

>  <logK (DIMETHYLFORMAMIDE)>
5.83

>  <logK (ETHYLENE GLYCOL)>
4.22

>  <logK (FORMAMIDE)>
4.01

>  <logK (HEXADECANE)>
5.34

>  <mean polarizability>
17.77

>  <dipole moment>
3.83787417671e-05

$$$$
236
 OpenBabel08101817183D

 13 12  0  0  1  0  0  0  0  0999 V2000
   -0.9920    0.9767   -0.1864 C   0  0  0  0  0  0  0  0  0  0  0  0
   -0.3030   -0.3722   -0.3368 C   0  0  1  0  0  0  0  0  0  0  0  0
    1.0206   -0.4420    0.4179 C   0  0  0  0  0  0  0  0  0  0  0  0
    1.9190    0.4969   -0.1805 O   0  0  0  0  0  0  0  0  0  0  0  0
   -1.0918   -1.4477    0.1960 O   0  0  0  0  0  0  0  0  0  0  0  0
   -0.3425    1.7798   -0.5578 H   0  0  0  0  0  0  0  0  0  0  0  0
   -1.9289    1.0057   -0.7621 H   0  0  0  0  0  0  0  0  0  0  0  0
   -1.2251    1.1715    0.8700 H   0  0  0  0  0  0  0  0  0  0  0  0
   -0.0866   -0.5555   -1.4063 H   0  0  0  0  0  0  0  0  0  0  0  0
    0.8403   -0.2079    1.4829 H   0  0  0  0  0  0  0  0  0  0  0  0
    1.4079   -1.4727    0.3510 H   0  0  0  0  0  0  0  0  0  0  0  0
    2.7695    0.4297    0.2764 H   0  0  0  0  0  0  0  0  0  0  0  0
   -1.9874   -1.3624   -0.1644 H   0  0  0  0  0  0  0  0  0  0  0  0
  1  8  1  0  0  0  0
  2  9  1  6  0  0  0
  2  1  1  0  0  0  0
  2  5  1  0  0  0  0
  2  3  1  0  0  0  0
  3 10  1  0  0  0  0
  4 12  1  0  0  0  0
  4  3  1  0  0  0  0
  6  1  1  0  0  0  0
  7  1  1  0  0  0  0
 11  3  1  0  0  0  0
 13  5  1  0  0  0  0
M  END
>  <Charge>
0.0

>  <InChI>
1/C3H8O2/c1-3(5)2-4/h3-5H,2H2,1H3

>  <Molecular Formula>
C_{3}H_{8}O_{2}

>  <Name>
(\xb1)-1,2-PROPANEDIOL

>  <SMILES>
CC(CO)O

>  <logK ((\xb1)-1,2-PROPANEDIOL)>
6.287

>  <mean polarizability>
7.65

>  <dipole moment>
0.366302605193

$$$$
237
 OpenBabel08101817183D

  7  7  0  0  0  0  0  0  0  0999 V2000
   -0.7343   -0.0186   -0.0431 C   0  0  0  0  0  0  0  0  0  0  0  0
    0.7324    0.0468   -0.0529 C   0  0  0  0  0  0  0  0  0  0  0  0
    0.0224   -0.3345    1.1353 O   0  0  0  0  0  0  0  0  0  0  0  0
   -1.2387   -0.8671   -0.5135 H   0  0  0  0  0  0  0  0  0  0  0  0
   -1.3143    0.9068    0.0106 H   0  0  0  0  0  0  0  0  0  0  0  0
    1.2284    1.0202   -0.0062 H   0  0  0  0  0  0  0  0  0  0  0  0
    1.3041   -0.7537   -0.5303 H   0  0  0  0  0  0  0  0  0  0  0  0
  1  5  1  0  0  0  0
  1  3  1  0  0  0  0
  2  1  1  0  0  0  0
  2  6  1  0  0  0  0
  2  3  1  0  0  0  0
  4  1  1  0  0  0  0
  7  2  1  0  0  0  0
M  END
>  <Charge>
0.0

>  <InChI>
1/C2H4O/c1-2-3-1/h1-2H2

>  <Molecular Formula>
C_{2}H_{4}O

>  <Name>
ETHYLENE OXIDE

>  <SMILES>
C1CO1

>  <logK ((\xb1)-1,2-PROPANEDIOL)>
1.804

>  <mean polarizability>
4.26

>  <dipole moment>
1.79595993855

$$$$
238
 OpenBabel08101817183D

 27 26  0  0  1  0  0  0  0  0999 V2000
    3.6536    0.2760   -0.0541 C   0  0  0  0  0  0  0  0  0  0  0  0
    2.7629   -0.9260   -0.3754 C   0  0  0  0  0  0  0  0  0  0  0  0
    1.3672   -0.8720    0.2616 C   0  0  0  0  0  0  0  0  0  0  0  0
    0.4809    0.2629   -0.2611 C   0  0  0  0  0  0  0  0  0  0  0  0
   -0.9347    0.3002    0.3476 C   0  0  2  0  0  0  0  0  0  0  0  0
   -1.8229   -0.8461   -0.1711 C   0  0  0  0  0  0  0  0  0  0  0  0
   -3.1640   -0.9934    0.5490 C   0  0  0  0  0  0  0  0  0  0  0  0
   -1.5807    1.6709    0.1417 C   0  0  0  0  0  0  0  0  0  0  0  0
   -1.7721    1.8968   -1.2627 O   0  0  0  0  0  0  0  0  0  0  0  0
    4.6542    0.1567   -0.4912 H   0  0  0  0  0  0  0  0  0  0  0  0
    3.7781    0.3956    1.0325 H   0  0  0  0  0  0  0  0  0  0  0  0
    3.2361    1.2135   -0.4450 H   0  0  0  0  0  0  0  0  0  0  0  0
    3.2679   -1.8451   -0.0391 H   0  0  0  0  0  0  0  0  0  0  0  0
    2.6554   -1.0223   -1.4684 H   0  0  0  0  0  0  0  0  0  0  0  0
    1.4740   -0.7737    1.3563 H   0  0  0  0  0  0  0  0  0  0  0  0
    0.8706   -1.8397    0.0906 H   0  0  0  0  0  0  0  0  0  0  0  0
    0.4000    0.1943   -1.3579 H   0  0  0  0  0  0  0  0  0  0  0  0
    0.9705    1.2279   -0.0549 H   0  0  0  0  0  0  0  0  0  0  0  0
   -0.8345    0.1867    1.4438 H   0  0  0  0  0  0  0  0  0  0  0  0
   -1.2664   -1.7903   -0.0775 H   0  0  0  0  0  0  0  0  0  0  0  0
   -1.9934   -0.6933   -1.2474 H   0  0  0  0  0  0  0  0  0  0  0  0
   -3.0250   -1.1276    1.6322 H   0  0  0  0  0  0  0  0  0  0  0  0
   -3.8095   -0.1168    0.4021 H   0  0  0  0  0  0  0  0  0  0  0  0
   -3.7158   -1.8670    0.1763 H   0  0  0  0  0  0  0  0  0  0  0  0
   -0.9191    2.4459    0.5710 H   0  0  0  0  0  0  0  0  0  0  0  0
   -2.5460    1.7221    0.6758 H   0  0  0  0  0  0  0  0  0  0  0  0
   -2.1871    2.7641   -1.3746 H   0  0  0  0  0  0  0  0  0  0  0  0
  1 11  1  0  0  0  0
  2  1  1  0  0  0  0
  2 13  1  0  0  0  0
  2  3  1  0  0  0  0
  3 15  1  0  0  0  0
  4 18  1  0  0  0  0
  4  3  1  0  0  0  0
  4  5  1  0  0  0  0
  5 19  1  1  0  0  0
  6 20  1  0  0  0  0
  6  5  1  0  0  0  0
  6  7  1  0  0  0  0
  7 22  1  0  0  0  0
  8  5  1  0  0  0  0
  8 25  1  0  0  0  0
  8 26  1  0  0  0  0
  9  8  1  0  0  0  0
 10  1  1  0  0  0  0
 12  1  1  0  0  0  0
 14  2  1  0  0  0  0
 16  3  1  0  0  0  0
 17  4  1  0  0  0  0
 21  6  1  0  0  0  0
 23  7  1  0  0  0  0
 24  7  1  0  0  0  0
 27  9  1  0  0  0  0
M  END
>  <Charge>
0.0

>  <InChI>
1/C8H18O/c1-3-5-6-8(4-2)7-9/h8-9H,3-7H2,1-2H3

>  <Molecular Formula>
C_{8}H_{18}O

>  <Name>
2-ETHYLHEXANOL

>  <SMILES>
CCCCC(CC)CO

>  <logK (2-ETHYLHEXANOL)>
2.925

>  <Formula>
C8H18O

>  <mean polarizability>
16.23

>  <dipole moment>
1.21670468103

$$$$
239
 OpenBabel08101817183D

 21 20  0  0  1  0  0  0  0  0999 V2000
    3.3334   -0.0927    0.2298 C   0  0  0  0  0  0  0  0  0  0  0  0
    2.0069   -0.2748   -0.5075 C   0  0  0  0  0  0  0  0  0  0  0  0
    0.7901    0.1025    0.3402 C   0  0  0  0  0  0  0  0  0  0  0  0
   -0.5368   -0.0791   -0.3982 C   0  0  0  0  0  0  0  0  0  0  0  0
   -1.7669    0.3011    0.4203 C   0  0  1  0  0  0  0  0  0  0  0  0
   -3.0567    0.1989   -0.3883 C   0  0  0  0  0  0  0  0  0  0  0  0
   -1.7997   -0.5781    1.5610 O   0  0  0  0  0  0  0  0  0  0  0  0
    3.3721   -0.7154    1.1351 H   0  0  0  0  0  0  0  0  0  0  0  0
    4.1891   -0.3684   -0.4014 H   0  0  0  0  0  0  0  0  0  0  0  0
    3.4735    0.9522    0.5430 H   0  0  0  0  0  0  0  0  0  0  0  0
    1.9081   -1.3229   -0.8346 H   0  0  0  0  0  0  0  0  0  0  0  0
    2.0112    0.3301   -1.4296 H   0  0  0  0  0  0  0  0  0  0  0  0
    0.7776   -0.5025    1.2593 H   0  0  0  0  0  0  0  0  0  0  0  0
    0.8852    1.1532    0.6650 H   0  0  0  0  0  0  0  0  0  0  0  0
   -0.5362    0.5296   -1.3171 H   0  0  0  0  0  0  0  0  0  0  0  0
   -0.6482   -1.1298   -0.7150 H   0  0  0  0  0  0  0  0  0  0  0  0
   -1.6438    1.3450    0.7726 H   0  0  0  0  0  0  0  0  0  0  0  0
   -3.1946   -0.8253   -0.7615 H   0  0  0  0  0  0  0  0  0  0  0  0
   -3.0377    0.8847   -1.2471 H   0  0  0  0  0  0  0  0  0  0  0  0
   -3.9308    0.4616    0.2260 H   0  0  0  0  0  0  0  0  0  0  0  0
   -2.5962   -0.3696    2.0725 H   0  0  0  0  0  0  0  0  0  0  0  0
  1 10  1  0  0  0  0
  1  8  1  0  0  0  0
  2  1  1  0  0  0  0
  2  3  1  0  0  0  0
  3 14  1  0  0  0  0
  3 13  1  0  0  0  0
  4  3  1  0  0  0  0
  4  5  1  0  0  0  0
  5 17  1  1  0  0  0
  5  7  1  0  0  0  0
  6 20  1  0  0  0  0
  6  5  1  0  0  0  0
  7 21  1  0  0  0  0
  9  1  1  0  0  0  0
 11  2  1  0  0  0  0
 12  2  1  0  0  0  0
 15  4  1  0  0  0  0
 16  4  1  0  0  0  0
 18  6  1  0  0  0  0
 19  6  1  0  0  0  0
M  END
>  <Charge>
0.0

>  <InChI>
1/C6H14O/c1-3-4-5-6(2)7/h6-7H,3-5H2,1-2H3

>  <Molecular Formula>
C_{6}H_{14}O

>  <Name>
2-HEXANOL

>  <SMILES>
CCCCC(C)O

>  <logK (2-HEXANOL)>
4.843

>  <mean polarizability>
12.73

>  <dipole moment>
1.48593144922

>  <Formula>
C6H14O

$$$$
240
 OpenBabel08101817183D

 21 20  0  0  1  0  0  0  0  0999 V2000
   -2.5082   -0.0047    0.5718 C   0  0  0  0  0  0  0  0  0  0  0  0
   -1.3950    0.9542    0.1432 C   0  0  0  0  0  0  0  0  0  0  0  0
   -0.4659    0.4016   -0.9471 C   0  0  0  0  0  0  0  0  0  0  0  0
    0.3290   -0.8603   -0.5845 C   0  0  2  0  0  0  0  0  0  0  0  0
    1.2294   -0.7235    0.6536 C   0  0  0  0  0  0  0  0  0  0  0  0
    2.2946    0.3715    0.5669 C   0  0  0  0  0  0  0  0  0  0  0  0
    1.0772   -1.3186   -1.7263 O   0  0  0  0  0  0  0  0  0  0  0  0
   -3.1829    0.4732    1.2950 H   0  0  0  0  0  0  0  0  0  0  0  0
   -3.1138   -0.3197   -0.2903 H   0  0  0  0  0  0  0  0  0  0  0  0
   -2.1119   -0.9129    1.0463 H   0  0  0  0  0  0  0  0  0  0  0  0
   -1.8490    1.8830   -0.2355 H   0  0  0  0  0  0  0  0  0  0  0  0
   -0.8036    1.2500    1.0240 H   0  0  0  0  0  0  0  0  0  0  0  0
    0.2456    1.1913   -1.2444 H   0  0  0  0  0  0  0  0  0  0  0  0
   -1.0558    0.1669   -1.8473 H   0  0  0  0  0  0  0  0  0  0  0  0
   -0.3766   -1.6832   -0.3936 H   0  0  0  0  0  0  0  0  0  0  0  0
    0.5942   -0.5533    1.5376 H   0  0  0  0  0  0  0  0  0  0  0  0
    1.7163   -1.6981    0.8074 H   0  0  0  0  0  0  0  0  0  0  0  0
    1.8541    1.3758    0.4997 H   0  0  0  0  0  0  0  0  0  0  0  0
    2.9513    0.2310   -0.3043 H   0  0  0  0  0  0  0  0  0  0  0  0
    2.9396    0.3564    1.4552 H   0  0  0  0  0  0  0  0  0  0  0  0
    1.6312   -0.5807   -2.0273 H   0  0  0  0  0  0  0  0  0  0  0  0
  1 10  1  0  0  0  0
  1  8  1  0  0  0  0
  2  1  1  0  0  0  0
  2 12  1  0  0  0  0
  3  4  1  0  0  0  0
  3  2  1  0  0  0  0
  4 15  1  1  0  0  0
  4  5  1  0  0  0  0
  5 17  1  0  0  0  0
  5 16  1  0  0  0  0
  6  5  1  0  0  0  0
  6 20  1  0  0  0  0
  7  4  1  0  0  0  0
  9  1  1  0  0  0  0
 11  2  1  0  0  0  0
 13  3  1  0  0  0  0
 14  3  1  0  0  0  0
 18  6  1  0  0  0  0
 19  6  1  0  0  0  0
 21  7  1  0  0  0  0
M  END
>  <Charge>
0.0

>  <InChI>
1/C6H14O/c1-3-5-6(7)4-2/h6-7H,3-5H2,1-2H3

>  <Molecular Formula>
C_{6}H_{14}O

>  <Name>
3-HEXANOL

>  <SMILES>
CCCC(CC)O

>  <logK (3-HEXANOL)>
4.716

>  <logK (HEXADECANE)>
3.44

>  <Formula>
C6H14O

>  <mean polarizability>
12.34

>  <dipole moment>
1.75476814664

$$$$
241
 OpenBabel08101817183D

 24 23  0  0  1  0  0  0  0  0999 V2000
   -3.8198    0.2497   -0.6048 C   0  0  0  0  0  0  0  0  0  0  0  0
   -2.5434    0.3829    0.2255 C   0  0  0  0  0  0  0  0  0  0  0  0
   -1.2981   -0.1337   -0.4980 C   0  0  0  0  0  0  0  0  0  0  0  0
   -0.0124    0.0002    0.3210 C   0  0  0  0  0  0  0  0  0  0  0  0
    1.2252   -0.5352   -0.4038 C   0  0  0  0  0  0  0  0  0  0  0  0
    2.5147   -0.5024    0.4242 C   0  0  2  0  0  0  0  0  0  0  0  0
    3.0140    0.9035    0.7171 C   0  0  0  0  0  0  0  0  0  0  0  0
    3.5885   -1.1674   -0.2670 O   0  0  0  0  0  0  0  0  0  0  0  0
   -4.0135   -0.8000   -0.8691 H   0  0  0  0  0  0  0  0  0  0  0  0
   -3.7433    0.8171   -1.5437 H   0  0  0  0  0  0  0  0  0  0  0  0
   -4.6977    0.6234   -0.0606 H   0  0  0  0  0  0  0  0  0  0  0  0
   -2.6619   -0.1631    1.1759 H   0  0  0  0  0  0  0  0  0  0  0  0
   -2.3903    1.4394    0.5008 H   0  0  0  0  0  0  0  0  0  0  0  0
   -1.4499   -1.1924   -0.7699 H   0  0  0  0  0  0  0  0  0  0  0  0
   -1.1808    0.4090   -1.4517 H   0  0  0  0  0  0  0  0  0  0  0  0
    0.1367    1.0604    0.5814 H   0  0  0  0  0  0  0  0  0  0  0  0
   -0.1344   -0.5352    1.2784 H   0  0  0  0  0  0  0  0  0  0  0  0
    1.0339   -1.5825   -0.6997 H   0  0  0  0  0  0  0  0  0  0  0  0
    1.3943    0.0250   -1.3383 H   0  0  0  0  0  0  0  0  0  0  0  0
    2.3251   -1.0211    1.3856 H   0  0  0  0  0  0  0  0  0  0  0  0
    3.2022    1.4418   -0.2224 H   0  0  0  0  0  0  0  0  0  0  0  0
    2.2814    1.4695    1.3057 H   0  0  0  0  0  0  0  0  0  0  0  0
    3.9524    0.8626    1.2840 H   0  0  0  0  0  0  0  0  0  0  0  0
    3.2771   -2.0517   -0.5166 H   0  0  0  0  0  0  0  0  0  0  0  0
  1 11  1  0  0  0  0
  1  2  1  0  0  0  0
  2 13  1  0  0  0  0
  2 12  1  0  0  0  0
  3  2  1  0  0  0  0
  3  4  1  0  0  0  0
  4 16  1  0  0  0  0
  4 17  1  0  0  0  0
  5  4  1  0  0  0  0
  5  6  1  0  0  0  0
  6  7  1  0  0  0  0
  6 20  1  1  0  0  0
  7 23  1  0  0  0  0
  7 22  1  0  0  0  0
  8  6  1  0  0  0  0
  9  1  1  0  0  0  0
 10  1  1  0  0  0  0
 14  3  1  0  0  0  0
 15  3  1  0  0  0  0
 18  5  1  0  0  0  0
 19  5  1  0  0  0  0
 21  7  1  0  0  0  0
 24  8  1  0  0  0  0
M  END
>  <Charge>
0.0

>  <InChI>
1/C7H16O/c1-3-4-5-6-7(2)8/h7-8H,3-6H2,1-2H3

>  <Molecular Formula>
C_{7}H_{16}O

>  <Name>
2-HEPTANOL

>  <SMILES>
CCCCCC(C)O

>  <logK (2-HEPTANOL)>
5.268

>  <Formula>
C7H16O

>  <mean polarizability>
14.6

>  <dipole moment>
1.70905824229

$$$$
242
 OpenBabel08101817183D

 24 23  0  0  0  0  0  0  0  0999 V2000
    2.7593    1.0367   -0.1131 C   0  0  0  0  0  0  0  0  0  0  0  0
    1.6999    0.4318   -1.0371 C   0  0  0  0  0  0  0  0  0  0  0  0
    1.1402   -0.9177   -0.5650 C   0  0  0  0  0  0  0  0  0  0  0  0
    0.4122   -0.9135    0.7866 C   0  0  0  0  0  0  0  0  0  0  0  0
   -0.7716    0.0615    0.8814 C   0  0  0  0  0  0  0  0  0  0  0  0
   -1.8950   -0.1489   -0.1376 C   0  0  0  0  0  0  0  0  0  0  0  0
   -3.0634    0.8147    0.0773 C   0  0  0  0  0  0  0  0  0  0  0  0
    0.0192   -2.2530    1.1418 O   0  0  0  0  0  0  0  0  0  0  0  0
    2.3513    1.2875    0.8758 H   0  0  0  0  0  0  0  0  0  0  0  0
    3.5952    0.3392    0.0416 H   0  0  0  0  0  0  0  0  0  0  0  0
    3.1723    1.9610   -0.5394 H   0  0  0  0  0  0  0  0  0  0  0  0
    2.1375    0.2875   -2.0370 H   0  0  0  0  0  0  0  0  0  0  0  0
    0.8765    1.1506   -1.1740 H   0  0  0  0  0  0  0  0  0  0  0  0
    1.9603   -1.6495   -0.4909 H   0  0  0  0  0  0  0  0  0  0  0  0
    0.4508   -1.3070   -1.3340 H   0  0  0  0  0  0  0  0  0  0  0  0
    1.1302   -0.6411    1.5752 H   0  0  0  0  0  0  0  0  0  0  0  0
   -0.3922    1.0935    0.7944 H   0  0  0  0  0  0  0  0  0  0  0  0
   -1.1859   -0.0278    1.8982 H   0  0  0  0  0  0  0  0  0  0  0  0
   -2.2687   -1.1843   -0.0704 H   0  0  0  0  0  0  0  0  0  0  0  0
   -1.5069   -0.0256   -1.1608 H   0  0  0  0  0  0  0  0  0  0  0  0
   -3.8615    0.6553   -0.6603 H   0  0  0  0  0  0  0  0  0  0  0  0
   -3.5015    0.6886    1.0776 H   0  0  0  0  0  0  0  0  0  0  0  0
   -2.7335    1.8602   -0.0084 H   0  0  0  0  0  0  0  0  0  0  0  0
   -0.5246   -2.5994    0.4163 H   0  0  0  0  0  0  0  0  0  0  0  0
  1 10  1  0  0  0  0
  1  9  1  0  0  0  0
  2  3  1  0  0  0  0
  2  1  1  0  0  0  0
  3 14  1  0  0  0  0
  3  4  1  0  0  0  0
  4  5  1  0  0  0  0
  4  8  1  0  0  0  0
  4 16  1  0  0  0  0
  5 18  1  0  0  0  0
  6 19  1  0  0  0  0
  6  7  1  0  0  0  0
  6  5  1  0  0  0  0
  7 22  1  0  0  0  0
 11  1  1  0  0  0  0
 12  2  1  0  0  0  0
 13  2  1  0  0  0  0
 15  3  1  0  0  0  0
 17  5  1  0  0  0  0
 20  6  1  0  0  0  0
 21  7  1  0  0  0  0
 23  7  1  0  0  0  0
 24  8  1  0  0  0  0
M  END
>  <Charge>
0.0

>  <InChI>
1/C7H16O/c1-3-5-7(8)6-4-2/h7-8H,3-6H2,1-2H3

>  <Molecular Formula>
C_{7}H_{16}O

>  <Name>
4-HEPTANOL

>  <SMILES>
CCCC(CCC)O

>  <logK (4-HEPTANOL)>
5.12

>  <Formula>
C7H16O

>  <mean polarizability>
14.28

>  <dipole moment>
1.77377627032

$$$$
243
 OpenBabel08101817183D

 27 26  0  0  1  0  0  0  0  0999 V2000
    3.9663   -0.7710    0.6242 C   0  0  0  0  0  0  0  0  0  0  0  0
    2.4432   -0.6514    0.5625 C   0  0  0  0  0  0  0  0  0  0  0  0
    1.9371   -0.2845   -0.8351 C   0  0  0  0  0  0  0  0  0  0  0  0
    0.4109   -0.2347   -0.9775 C   0  0  0  0  0  0  0  0  0  0  0  0
   -0.2826    0.8593   -0.1678 C   0  0  2  0  0  0  0  0  0  0  0  0
   -1.8038    0.8799   -0.3622 C   0  0  0  0  0  0  0  0  0  0  0  0
   -2.5508   -0.3277    0.2108 C   0  0  0  0  0  0  0  0  0  0  0  0
   -4.0694   -0.1919    0.0938 C   0  0  0  0  0  0  0  0  0  0  0  0
    0.3003    2.1085   -0.5842 O   0  0  0  0  0  0  0  0  0  0  0  0
    4.3131   -1.0319    1.6333 H   0  0  0  0  0  0  0  0  0  0  0  0
    4.3316   -1.5462   -0.0651 H   0  0  0  0  0  0  0  0  0  0  0  0
    4.4486    0.1754    0.3400 H   0  0  0  0  0  0  0  0  0  0  0  0
    2.1104    0.1050    1.2902 H   0  0  0  0  0  0  0  0  0  0  0  0
    1.9851   -1.6037    0.8793 H   0  0  0  0  0  0  0  0  0  0  0  0
    2.3264   -1.0228   -1.5556 H   0  0  0  0  0  0  0  0  0  0  0  0
    2.3579    0.6878   -1.1321 H   0  0  0  0  0  0  0  0  0  0  0  0
   -0.0152   -1.2067   -0.6832 H   0  0  0  0  0  0  0  0  0  0  0  0
    0.1491   -0.0803   -2.0371 H   0  0  0  0  0  0  0  0  0  0  0  0
   -0.0738    0.7022    0.9093 H   0  0  0  0  0  0  0  0  0  0  0  0
   -2.0196    0.9855   -1.4383 H   0  0  0  0  0  0  0  0  0  0  0  0
   -2.1956    1.7930    0.1221 H   0  0  0  0  0  0  0  0  0  0  0  0
   -2.2281   -1.2450   -0.3046 H   0  0  0  0  0  0  0  0  0  0  0  0
   -2.2728   -0.4586    1.2697 H   0  0  0  0  0  0  0  0  0  0  0  0
   -4.3787   -0.0866   -0.9559 H   0  0  0  0  0  0  0  0  0  0  0  0
   -4.4325    0.6939    0.6348 H   0  0  0  0  0  0  0  0  0  0  0  0
   -4.5855   -1.0691    0.5065 H   0  0  0  0  0  0  0  0  0  0  0  0
   -0.1721    2.8214   -0.1272 H   0  0  0  0  0  0  0  0  0  0  0  0
  1 10  1  0  0  0  0
  2  1  1  0  0  0  0
  2 14  1  0  0  0  0
  2 13  1  0  0  0  0
  3  2  1  0  0  0  0
  4  3  1  0  0  0  0
  4 17  1  0  0  0  0
  4  5  1  0  0  0  0
  5 19  1  1  0  0  0
  6  5  1  0  0  0  0
  6 21  1  0  0  0  0
  6  7  1  0  0  0  0
  7 23  1  0  0  0  0
  8  7  1  0  0  0  0
  8 26  1  0  0  0  0
  8 25  1  0  0  0  0
  9  5  1  0  0  0  0
  9 27  1  0  0  0  0
 11  1  1  0  0  0  0
 12  1  1  0  0  0  0
 15  3  1  0  0  0  0
 16  3  1  0  0  0  0
 18  4  1  0  0  0  0
 20  6  1  0  0  0  0
 22  7  1  0  0  0  0
 24  8  1  0  0  0  0
M  END
>  <Charge>
0.0

>  <InChI>
1/C8H18O/c1-3-5-7-8(9)6-4-2/h8-9H,3-7H2,1-2H3

>  <Molecular Formula>
C_{8}H_{18}O

>  <Name>
4-OCTANOL

>  <SMILES>
CCCCC(CCC)O

>  <logK (4-OCTANOL)>
5.538

>  <logK (DODECANE)>
4.41

>  <Formula>
C8H18O

>  <mean polarizability>
16.41

>  <dipole moment>
1.58677289366

$$$$
244
 OpenBabel08101817183D

  2  1  0  0  0  0  0  0  0  0999 V2000
    1.3487    0.0000    0.0000 I   0  0  0  0  0  0  0  0  0  0  0  0
   -1.3487    0.0000    0.0000 I   0  0  0  0  0  0  0  0  0  0  0  0
  1  2  1  0  0  0  0
M  END
>  <Charge>
0.0

>  <InChI>
1/I2/c1-2

>  <Molecular Formula>
I_{2}

>  <Name>
MOLECULAR IODINE

>  <SMILES>
II

>  <logK (1-CHLOROBUTANE)>
4.134

>  <logK (2,2,4-TRIMETHYLPENTANE)>
3.296

>  <logK (CARBON TETRACHLORIDE)>
3.853

>  <logK (CHLOROBENZENE)>
4.26

>  <logK (HEPTANE)>
3.415

>  <logK (HEXANE)>
3.424

>  <mean polarizability>
8.5

>  <dipole moment>
6.81403332714e-11

$$$$
245
 OpenBabel08101817183D

 35 34  0  0  0  0  0  0  0  0999 V2000
    4.8056    0.9315    0.0749 C   0  0  0  0  0  0  0  0  0  0  0  0
    4.7484   -0.5938   -0.0245 C   0  0  0  0  0  0  0  0  0  0  0  0
    3.5456   -1.2566    0.6639 C   0  0  0  0  0  0  0  0  0  0  0  0
    2.1647   -0.8598    0.1011 C   0  0  0  0  0  0  0  0  0  0  0  0
    1.4582    0.2603    0.8767 C   0  0  0  0  0  0  0  0  0  0  0  0
    0.1695    0.7769    0.2238 C   0  0  0  0  0  0  0  0  0  0  0  0
   -0.9690   -0.2440    0.1361 C   0  0  0  0  0  0  0  0  0  0  0  0
   -2.2566    0.3334   -0.4579 C   0  0  0  0  0  0  0  0  0  0  0  0
   -3.3937   -0.6881   -0.5506 C   0  0  0  0  0  0  0  0  0  0  0  0
   -4.6837   -0.1602   -1.1928 C   0  0  0  0  0  0  0  0  0  0  0  0
   -5.4016    0.9177   -0.3781 C   0  0  0  0  0  0  0  0  0  0  0  0
    4.8048    1.2645    1.1232 H   0  0  0  0  0  0  0  0  0  0  0  0
    3.9501    1.4061   -0.4252 H   0  0  0  0  0  0  0  0  0  0  0  0
    5.7171    1.3230   -0.3976 H   0  0  0  0  0  0  0  0  0  0  0  0
    4.7487   -0.8864   -1.0878 H   0  0  0  0  0  0  0  0  0  0  0  0
    5.6716   -1.0159    0.4032 H   0  0  0  0  0  0  0  0  0  0  0  0
    3.6729   -2.3465    0.5785 H   0  0  0  0  0  0  0  0  0  0  0  0
    3.5761   -1.0367    1.7448 H   0  0  0  0  0  0  0  0  0  0  0  0
    2.2765   -0.5554   -0.9545 H   0  0  0  0  0  0  0  0  0  0  0  0
    1.5136   -1.7463    0.0861 H   0  0  0  0  0  0  0  0  0  0  0  0
    2.1498    1.1064    1.0061 H   0  0  0  0  0  0  0  0  0  0  0  0
    1.2326   -0.1001    1.8954 H   0  0  0  0  0  0  0  0  0  0  0  0
    0.4031    1.1466   -0.7899 H   0  0  0  0  0  0  0  0  0  0  0  0
   -0.1867    1.6540    0.7891 H   0  0  0  0  0  0  0  0  0  0  0  0
   -0.6539   -1.1100   -0.4682 H   0  0  0  0  0  0  0  0  0  0  0  0
   -1.1791   -0.6384    1.1456 H   0  0  0  0  0  0  0  0  0  0  0  0
   -2.5739    1.1981    0.1473 H   0  0  0  0  0  0  0  0  0  0  0  0
   -2.0457    0.7300   -1.4665 H   0  0  0  0  0  0  0  0  0  0  0  0
   -3.6234   -1.0694    0.4596 H   0  0  0  0  0  0  0  0  0  0  0  0
   -3.0398   -1.5579   -1.1284 H   0  0  0  0  0  0  0  0  0  0  0  0
   -5.3707   -1.0066   -1.3491 H   0  0  0  0  0  0  0  0  0  0  0  0
   -4.4528    0.2305   -2.1979 H   0  0  0  0  0  0  0  0  0  0  0  0
   -4.7886    1.8216   -0.2606 H   0  0  0  0  0  0  0  0  0  0  0  0
   -6.3413    1.2203   -0.8599 H   0  0  0  0  0  0  0  0  0  0  0  0
   -5.6485    0.5514    0.6295 H   0  0  0  0  0  0  0  0  0  0  0  0
  1 12  1  0  0  0  0
  2  1  1  0  0  0  0
  2 16  1  0  0  0  0
  2  3  1  0  0  0  0
  3 18  1  0  0  0  0
  4  3  1  0  0  0  0
  4  5  1  0  0  0  0
  5 21  1  0  0  0  0
  5 22  1  0  0  0  0
  6 24  1  0  0  0  0
  6  5  1  0  0  0  0
  7  6  1  0  0  0  0
  7 26  1  0  0  0  0
  8  7  1  0  0  0  0
  8 27  1  0  0  0  0
  9  8  1  0  0  0  0
  9 29  1  0  0  0  0
 10  9  1  0  0  0  0
 10 11  1  0  0  0  0
 11 33  1  0  0  0  0
 11 35  1  0  0  0  0
 13  1  1  0  0  0  0
 14  1  1  0  0  0  0
 15  2  1  0  0  0  0
 17  3  1  0  0  0  0
 19  4  1  0  0  0  0
 20  4  1  0  0  0  0
 23  6  1  0  0  0  0
 25  7  1  0  0  0  0
 28  8  1  0  0  0  0
 30  9  1  0  0  0  0
 31 10  1  0  0  0  0
 32 10  1  0  0  0  0
 34 11  1  0  0  0  0
M  END
>  <Charge>
0.0

>  <InChI>
1/C11H24/c1-3-5-7-9-11-10-8-6-4-2/h3-11H2,1-2H3

>  <Molecular Formula>
C_{11}H_{24}

>  <Name>
UNDECANE

>  <SMILES>
CCCCCCCCCCC

>  <logK (2-BUTOXYETHANOL)>
4.52

>  <logK (2-ETHOXYETHANOL)>
4.185

>  <logK (DIIODOMETHANE)>
3.82

>  <logK (DIMETHYLFORMAMIDE)>
4.08

>  <logK (HEXANE)>
5.54

>  <logK (METHOXYETHANOL)>
3.785

>  <logK (PYRIDINE)>
4.739

>  <logK (UNDECANE)>
5.48

>  <experimental polarizability source>
@Article{Bosque2002, Title = {Polarizabilities of Solvents from the Chemical Composition}, Author = {Bosque, Ramon and Sales, Joaquim}, Journal = {Journal of Chemical Information and Computer Sciences}, Year = {2002}, Note = {PMID: 12377003}, Number = {5}, Pages = {1154-1163}, Volume = {42}, Doi = {10.1021/ci025528x}, Url = {https://doi.org/10.1021/ci025528x}}

>  <Formula>
C11H24

>  <dipole moment>
0.142179045188

>  <mean polarizability>
21.37

$$$$
246
 OpenBabel08101817183D

 38 37  0  0  0  0  0  0  0  0999 V2000
    5.3485   -0.1265    0.7060 C   0  0  0  0  0  0  0  0  0  0  0  0
    4.6088    1.2087    0.5790 C   0  0  0  0  0  0  0  0  0  0  0  0
    3.8141    1.3876   -0.7301 C   0  0  0  0  0  0  0  0  0  0  0  0
    2.3370    0.9713   -0.6776 C   0  0  0  0  0  0  0  0  0  0  0  0
    2.0697   -0.5124   -0.4029 C   0  0  0  0  0  0  0  0  0  0  0  0
    0.5941   -0.9150   -0.5293 C   0  0  0  0  0  0  0  0  0  0  0  0
   -0.3213   -0.2980    0.5347 C   0  0  0  0  0  0  0  0  0  0  0  0
   -1.7629   -0.8245    0.5154 C   0  0  0  0  0  0  0  0  0  0  0  0
   -2.5686   -0.4123   -0.7207 C   0  0  0  0  0  0  0  0  0  0  0  0
   -3.9831   -1.0071   -0.7862 C   0  0  0  0  0  0  0  0  0  0  0  0
   -4.9343   -0.6131    0.3529 C   0  0  0  0  0  0  0  0  0  0  0  0
   -5.2357    0.8845    0.4319 C   0  0  0  0  0  0  0  0  0  0  0  0
    4.6659   -0.9853    0.6656 H   0  0  0  0  0  0  0  0  0  0  0  0
    5.9029   -0.1866    1.6528 H   0  0  0  0  0  0  0  0  0  0  0  0
    6.0751   -0.2469   -0.1110 H   0  0  0  0  0  0  0  0  0  0  0  0
    3.9284    1.3415    1.4367 H   0  0  0  0  0  0  0  0  0  0  0  0
    5.3490    2.0192    0.6614 H   0  0  0  0  0  0  0  0  0  0  0  0
    4.3223    0.8372   -1.5405 H   0  0  0  0  0  0  0  0  0  0  0  0
    3.8467    2.4479   -1.0244 H   0  0  0  0  0  0  0  0  0  0  0  0
    1.8665    1.2362   -1.6399 H   0  0  0  0  0  0  0  0  0  0  0  0
    1.8294    1.5852    0.0841 H   0  0  0  0  0  0  0  0  0  0  0  0
    2.6668   -1.1176   -1.1050 H   0  0  0  0  0  0  0  0  0  0  0  0
    2.4239   -0.7771    0.6071 H   0  0  0  0  0  0  0  0  0  0  0  0
    0.5169   -2.0130   -0.4619 H   0  0  0  0  0  0  0  0  0  0  0  0
    0.2381   -0.6462   -1.5373 H   0  0  0  0  0  0  0  0  0  0  0  0
    0.1172   -0.4963    1.5271 H   0  0  0  0  0  0  0  0  0  0  0  0
   -0.3400    0.7988    0.4260 H   0  0  0  0  0  0  0  0  0  0  0  0
   -1.7470   -1.9262    0.5882 H   0  0  0  0  0  0  0  0  0  0  0  0
   -2.2774   -0.4695    1.4220 H   0  0  0  0  0  0  0  0  0  0  0  0
   -2.0295   -0.7222   -1.6289 H   0  0  0  0  0  0  0  0  0  0  0  0
   -2.6190    0.6883   -0.7660 H   0  0  0  0  0  0  0  0  0  0  0  0
   -4.4430   -0.7152   -1.7450 H   0  0  0  0  0  0  0  0  0  0  0  0
   -3.9006   -2.1063   -0.8126 H   0  0  0  0  0  0  0  0  0  0  0  0
   -5.8789   -1.1627    0.2176 H   0  0  0  0  0  0  0  0  0  0  0  0
   -4.5269   -0.9580    1.3162 H   0  0  0  0  0  0  0  0  0  0  0  0
   -4.3319    1.4758    0.6337 H   0  0  0  0  0  0  0  0  0  0  0  0
   -5.6662    1.2525   -0.5110 H   0  0  0  0  0  0  0  0  0  0  0  0
   -5.9547    1.1033    1.2329 H   0  0  0  0  0  0  0  0  0  0  0  0
  1 14  1  0  0  0  0
  2 17  1  0  0  0  0
  2  1  1  0  0  0  0
  2 16  1  0  0  0  0
  3  4  1  0  0  0  0
  3  2  1  0  0  0  0
  4  5  1  0  0  0  0
  4 21  1  0  0  0  0
  5 23  1  0  0  0  0
  6 24  1  0  0  0  0
  6  5  1  0  0  0  0
  6  7  1  0  0  0  0
  7 26  1  0  0  0  0
  8  7  1  0  0  0  0
  8 28  1  0  0  0  0
  8 29  1  0  0  0  0
  9  8  1  0  0  0  0
 10  9  1  0  0  0  0
 10 11  1  0  0  0  0
 11 12  1  0  0  0  0
 11 35  1  0  0  0  0
 12 36  1  0  0  0  0
 12 38  1  0  0  0  0
 13  1  1  0  0  0  0
 15  1  1  0  0  0  0
 18  3  1  0  0  0  0
 19  3  1  0  0  0  0
 20  4  1  0  0  0  0
 22  5  1  0  0  0  0
 25  6  1  0  0  0  0
 27  7  1  0  0  0  0
 30  9  1  0  0  0  0
 31  9  1  0  0  0  0
 32 10  1  0  0  0  0
 33 10  1  0  0  0  0
 34 11  1  0  0  0  0
 37 12  1  0  0  0  0
M  END
>  <Charge>
0.0

>  <InChI>
1/C12H26/c1-3-5-7-9-11-12-10-8-6-4-2/h3-12H2,1-2H3

>  <Molecular Formula>
C_{12}H_{26}

>  <Name>
DODECANE

>  <SMILES>
CCCCCCCCCCCC

>  <logK (DIMETHYLFORMAMIDE)>
4.51

>  <logK (DODECANE)>
5.84

>  <logK (HEXANE)>
6.038

>  <logK (UNDECANE)>
6.0

>  <experimental polarizability source>
@Article{Bosque2002, Title = {Polarizabilities of Solvents from the Chemical Composition}, Author = {Bosque, Ramon and Sales, Joaquim}, Journal = {Journal of Chemical Information and Computer Sciences}, Year = {2002}, Note = {PMID: 12377003}, Number = {5}, Pages = {1154-1163}, Volume = {42}, Doi = {10.1021/ci025528x}, Url = {https://doi.org/10.1021/ci025528x}}

>  <Formula>
C12H26

>  <dipole moment>
0.0432843304997

>  <mean polarizability>
23.14

$$$$
247
 OpenBabel08101817183D

 11 10  0  0  0  0  0  0  0  0999 V2000
   -0.0161   -0.1523   -0.5424 C   0  0  0  0  0  0  0  0  0  0  0  0
   -1.2407    0.0780    0.3338 C   0  0  0  0  0  0  0  0  0  0  0  0
   -2.7648   -0.1988   -0.5838 Cl  0  0  0  0  0  0  0  0  0  0  0  0
    1.2583    0.0879    0.2566 C   0  0  0  0  0  0  0  0  0  0  0  0
    2.7249   -0.1772   -0.7535 Cl  0  0  0  0  0  0  0  0  0  0  0  0
   -0.0240   -1.1797   -0.9301 H   0  0  0  0  0  0  0  0  0  0  0  0
   -0.0456    0.5233   -1.4077 H   0  0  0  0  0  0  0  0  0  0  0  0
   -1.2661   -0.6089    1.1878 H   0  0  0  0  0  0  0  0  0  0  0  0
   -1.2879    1.1079    0.7063 H   0  0  0  0  0  0  0  0  0  0  0  0
    1.3418   -0.5984    1.1073 H   0  0  0  0  0  0  0  0  0  0  0  0
    1.3203    1.1183    0.6256 H   0  0  0  0  0  0  0  0  0  0  0  0
  1  4  1  0  0  0  0
  1  2  1  0  0  0  0
  2  9  1  0  0  0  0
  2  8  1  0  0  0  0
  3  2  1  0  0  0  0
  4 11  1  0  0  0  0
  4 10  1  0  0  0  0
  5  4  1  0  0  0  0
  6  1  1  0  0  0  0
  7  1  1  0  0  0  0
M  END
>  <Charge>
0.0

>  <InChI>
1/C3H6Cl2/c4-2-1-3-5/h1-3H2

>  <Molecular Formula>
C_{3}H_{6}Cl_{2}

>  <Name>
1,3-DICHLOROPROPANE

>  <SMILES>
C(CCl)CCl

>  <logK (ACETONE)>
4.13

>  <logK (CARBON TETRACHLORIDE)>
3.81

>  <logK (HEXADECANE)>
3.194

>  <logK (HEXANE)>
3.25

>  <mean polarizability>
10.36

>  <dipole moment>
1.82301110965

$$$$
248
 OpenBabel08101817183D

 14 13  0  0  0  0  0  0  0  0999 V2000
   -0.7325    0.0263   -0.1346 C   0  0  0  0  0  0  0  0  0  0  0  0
    0.6780   -0.0787    0.4536 C   0  0  0  0  0  0  0  0  0  0  0  0
    1.7301    0.3452   -0.5570 C   0  0  0  0  0  0  0  0  0  0  0  0
    3.3980    0.2031    0.1161 Cl  0  0  0  0  0  0  0  0  0  0  0  0
   -1.8342   -0.3991    0.8224 C   0  0  0  0  0  0  0  0  0  0  0  0
   -1.9739    0.7063    2.2462 Cl  0  0  0  0  0  0  0  0  0  0  0  0
   -0.9300    1.0542   -0.4759 H   0  0  0  0  0  0  0  0  0  0  0  0
   -0.8146   -0.6222   -1.0243 H   0  0  0  0  0  0  0  0  0  0  0  0
    0.8747   -1.1139    0.7714 H   0  0  0  0  0  0  0  0  0  0  0  0
    0.7556    0.5518    1.3500 H   0  0  0  0  0  0  0  0  0  0  0  0
    1.6074    1.3935   -0.8544 H   0  0  0  0  0  0  0  0  0  0  0  0
    1.7099   -0.2815   -1.4569 H   0  0  0  0  0  0  0  0  0  0  0  0
   -2.8148   -0.3846    0.3349 H   0  0  0  0  0  0  0  0  0  0  0  0
   -1.6537   -1.4004    1.2318 H   0  0  0  0  0  0  0  0  0  0  0  0
  1  2  1  0  0  0  0
  1  5  1  0  0  0  0
  2  9  1  0  0  0  0
  2 10  1  0  0  0  0
  3  4  1  0  0  0  0
  3  2  1  0  0  0  0
  5 14  1  0  0  0  0
  5  6  1  0  0  0  0
  7  1  1  0  0  0  0
  8  1  1  0  0  0  0
 11  3  1  0  0  0  0
 12  3  1  0  0  0  0
 13  5  1  0  0  0  0
M  END
>  <Charge>
0.0

>  <InChI>
1/C4H8Cl2/c5-3-1-2-4-6/h1-4H2

>  <Molecular Formula>
C_{4}H_{8}Cl_{2}

>  <Name>
1,4-DICHLOROBUTANE

>  <SMILES>
C(CCCl)CCl

>  <logK (ACETONE)>
4.81

>  <logK (HEXADECANE)>
3.775

>  <logK (HEXANE)>
3.63

>  <mean polarizability>
12.17

>  <dipole moment>
2.89224008791

$$$$
249
 OpenBabel08101817183D

 17 16  0  0  0  0  0  0  0  0999 V2000
   -2.4280    0.1017    0.4145 C   0  0  0  0  0  0  0  0  0  0  0  0
   -1.0518    0.4389   -0.1596 C   0  0  0  0  0  0  0  0  0  0  0  0
   -0.0673   -0.7288   -0.0389 C   0  0  0  0  0  0  0  0  0  0  0  0
    1.3072   -0.5339   -0.6937 C   0  0  0  0  0  0  0  0  0  0  0  0
    2.2923    0.3763    0.0260 C   0  0  0  0  0  0  0  0  0  0  0  0
    1.9661    2.1472   -0.1893 Cl  0  0  0  0  0  0  0  0  0  0  0  0
   -2.8813   -0.7543   -0.1070 H   0  0  0  0  0  0  0  0  0  0  0  0
   -2.3618   -0.1595    1.4810 H   0  0  0  0  0  0  0  0  0  0  0  0
   -3.1189    0.9508    0.3242 H   0  0  0  0  0  0  0  0  0  0  0  0
   -0.6467    1.3266    0.3451 H   0  0  0  0  0  0  0  0  0  0  0  0
   -1.1512    0.7156   -1.2217 H   0  0  0  0  0  0  0  0  0  0  0  0
   -0.5313   -1.6201   -0.4931 H   0  0  0  0  0  0  0  0  0  0  0  0
    0.0747   -0.9795    1.0268 H   0  0  0  0  0  0  0  0  0  0  0  0
    1.8045   -1.5179   -0.7476 H   0  0  0  0  0  0  0  0  0  0  0  0
    1.1931   -0.1947   -1.7350 H   0  0  0  0  0  0  0  0  0  0  0  0
    2.2911    0.2000    1.1087 H   0  0  0  0  0  0  0  0  0  0  0  0
    3.3093    0.2314   -0.3534 H   0  0  0  0  0  0  0  0  0  0  0  0
  1  8  1  0  0  0  0
  2  3  1  0  0  0  0
  2 10  1  0  0  0  0
  2  1  1  0  0  0  0
  3 13  1  0  0  0  0
  4  3  1  0  0  0  0
  4  5  1  0  0  0  0
  5 16  1  0  0  0  0
  6  5  1  0  0  0  0
  7  1  1  0  0  0  0
  9  1  1  0  0  0  0
 11  2  1  0  0  0  0
 12  3  1  0  0  0  0
 14  4  1  0  0  0  0
 15  4  1  0  0  0  0
 17  5  1  0  0  0  0
M  END
>  <Charge>
0.0

>  <InChI>
1/C5H11Cl/c1-2-3-4-5-6/h2-5H2,1H3

>  <Molecular Formula>
C_{5}H_{11}Cl

>  <Name>
1-CHLOROPENTANE

>  <SMILES>
CCCCCCl

>  <logK (1,4-DIOXANE)>
3.551

>  <logK (1-HEXADECENE)>
3.17169015875

>  <logK (ACETONE)>
3.56

>  <logK (DIBUTYL ETHER)>
3.51

>  <logK (HEXADECANE)>
3.223

>  <logK (HEXANE)>
3.506

>  <logK (TETRAHYDROFURAN)>
4.159

>  <logK (TRIBUTYL PHOSPHATE)>
3.44

>  <mean polarizability>
11.89

>  <dipole moment>
1.97455099773

$$$$
250
 OpenBabel08101817183D

 19 18  0  0  0  0  0  0  0  0999 V2000
    1.8554    0.5026   -1.1700 C   0  0  0  0  0  0  0  0  0  0  0  0
    1.1995    0.3176    0.1817 C   0  0  0  0  0  0  0  0  0  0  0  0
    1.8362    0.4795    1.2095 O   0  0  0  0  0  0  0  0  0  0  0  0
   -0.2981   -0.0813    0.2589 C   0  0  0  0  0  0  0  0  0  0  0  0
   -0.3721   -1.4092    1.0390 C   0  0  0  0  0  0  0  0  0  0  0  0
   -0.9674   -0.2498   -1.1119 C   0  0  0  0  0  0  0  0  0  0  0  0
   -1.0194    1.0239    1.0561 C   0  0  0  0  0  0  0  0  0  0  0  0
    2.9043    0.7807   -1.0308 H   0  0  0  0  0  0  0  0  0  0  0  0
    1.3383    1.2796   -1.7515 H   0  0  0  0  0  0  0  0  0  0  0  0
    1.7908   -0.4204   -1.7642 H   0  0  0  0  0  0  0  0  0  0  0  0
    0.1221   -2.2243    0.4910 H   0  0  0  0  0  0  0  0  0  0  0  0
   -1.4224   -1.6946    1.1924 H   0  0  0  0  0  0  0  0  0  0  0  0
    0.1133   -1.3084    2.0170 H   0  0  0  0  0  0  0  0  0  0  0  0
   -0.9514    0.6793   -1.6977 H   0  0  0  0  0  0  0  0  0  0  0  0
   -0.4940   -1.0407   -1.7096 H   0  0  0  0  0  0  0  0  0  0  0  0
   -2.0211   -0.5310   -0.9746 H   0  0  0  0  0  0  0  0  0  0  0  0
   -2.0722    0.7478    1.2094 H   0  0  0  0  0  0  0  0  0  0  0  0
   -0.5448    1.1646    2.0344 H   0  0  0  0  0  0  0  0  0  0  0  0
   -0.9972    1.9840    0.5207 H   0  0  0  0  0  0  0  0  0  0  0  0
  1  8  1  0  0  0  0
  1  2  1  0  0  0  0
  2  4  1  0  0  0  0
  2  3  2  0  0  0  0
  4  5  1  0  0  0  0
  4  7  1  0  0  0  0
  5 12  1  0  0  0  0
  5 13  1  0  0  0  0
  6 16  1  0  0  0  0
  6  4  1  0  0  0  0
  7 17  1  0  0  0  0
  7 18  1  0  0  0  0
  9  1  1  0  0  0  0
 10  1  1  0  0  0  0
 11  5  1  0  0  0  0
 14  6  1  0  0  0  0
 15  6  1  0  0  0  0
 19  7  1  0  0  0  0
M  END
>  <Charge>
0.0

>  <InChI>
1/C6H12O/c1-5(7)6(2,3)4/h1-4H3

>  <Molecular Formula>
C_{6}H_{12}O

>  <Name>
PINACOLONE

>  <SMILES>
CC(=O)C(C)(C)C

>  <logK (CHLOROBENZENE)>
4.01

>  <logK (DECANE)>
3.042

>  <logK (HEPTANE)>
3.152

>  <logK (HEXANE)>
3.181

>  <logK (OCTANE)>
3.086

>  <logK (TOLUENE)>
3.665

>  <mean polarizability>
11.9

>  <dipole moment>
2.68680828428

$$$$
251
 OpenBabel08101817183D

 17 17  0  0  0  0  0  0  0  0999 V2000
   -0.4255   -1.0364    0.8287 C   0  0  0  0  0  0  0  0  0  0  0  0
   -1.4252   -0.2453   -0.0186 C   0  0  0  0  0  0  0  0  0  0  0  0
   -0.9262    1.1859   -0.2955 C   0  0  0  0  0  0  0  0  0  0  0  0
    0.4817    1.1939   -0.8697 C   0  0  0  0  0  0  0  0  0  0  0  0
    0.7791    1.8315   -1.8660 O   0  0  0  0  0  0  0  0  0  0  0  0
    1.4903    0.3430   -0.1139 C   0  0  0  0  0  0  0  0  0  0  0  0
    0.9544   -1.0741    0.1670 C   0  0  0  0  0  0  0  0  0  0  0  0
   -0.7943   -2.0603    0.9893 H   0  0  0  0  0  0  0  0  0  0  0  0
   -0.3426   -0.5734    1.8269 H   0  0  0  0  0  0  0  0  0  0  0  0
   -2.4073   -0.2048    0.4742 H   0  0  0  0  0  0  0  0  0  0  0  0
   -1.5791   -0.7631   -0.9793 H   0  0  0  0  0  0  0  0  0  0  0  0
   -1.5872    1.7324   -0.9794 H   0  0  0  0  0  0  0  0  0  0  0  0
   -0.8937    1.7432    0.6575 H   0  0  0  0  0  0  0  0  0  0  0  0
    2.4298    0.3274   -0.6800 H   0  0  0  0  0  0  0  0  0  0  0  0
    1.6867    0.8482    0.8484 H   0  0  0  0  0  0  0  0  0  0  0  0
    0.8871   -1.6265   -0.7843 H   0  0  0  0  0  0  0  0  0  0  0  0
    1.6720   -1.6218    0.7949 H   0  0  0  0  0  0  0  0  0  0  0  0
  1  8  1  0  0  0  0
  1  9  1  0  0  0  0
  2 10  1  0  0  0  0
  2  1  1  0  0  0  0
  3  2  1  0  0  0  0
  3 13  1  0  0  0  0
  4  3  1  0  0  0  0
  4  6  1  0  0  0  0
  5  4  2  0  0  0  0
  6  7  1  0  0  0  0
  6 15  1  0  0  0  0
  7 17  1  0  0  0  0
  7  1  1  0  0  0  0
 11  2  1  0  0  0  0
 12  3  1  0  0  0  0
 14  6  1  0  0  0  0
 16  7  1  0  0  0  0
M  END
>  <Charge>
0.0

>  <InChI>
1/C6H10O/c7-6-4-2-1-3-5-6/h1-5H2

>  <Molecular Formula>
C_{6}H_{10}O

>  <Name>
CYCLOHEXANONE

>  <SMILES>
C1CCC(=O)CC1

>  <logK (CARBON TETRACHLORIDE)>
4.57

>  <logK (CYCLOHEXANONE)>
4.651

>  <logK (DICHLOROETHANE)>
4.97

>  <logK (HEPTANE)>
3.8

>  <logK (HEXADECANE)>
3.616

>  <logK (HEXANE)>
3.65

>  <mean polarizability>
11.13

>  <dipole moment>
3.32714473324

>  <experimental polarizability source>
@Article{Bosque2002, Title = {Polarizabilities of Solvents from the Chemical Composition}, Author = {Bosque, Ramon and Sales, Joaquim}, Journal = {Journal of Chemical Information and Computer Sciences}, Year = {2002}, Note = {PMID: 12377003}, Number = {5}, Pages = {1154-1163}, Volume = {42}, Doi = {10.1021/ci025528x}, Url = {https://doi.org/10.1021/ci025528x}}

>  <Formula>
C6H10O

$$$$
252
 OpenBabel08101817183D

 10  9  0  0  0  0  0  0  0  0999 V2000
   -1.0376    0.2995   -0.0729 C   0  0  0  0  0  0  0  0  0  0  0  0
    0.2308   -0.5218   -0.3191 C   0  0  0  0  0  0  0  0  0  0  0  0
    1.4440   -0.0596    0.3645 N   0  0  0  0  0  0  0  0  0  0  0  0
   -0.9020    1.3411   -0.3991 H   0  0  0  0  0  0  0  0  0  0  0  0
   -1.8967   -0.1153   -0.6214 H   0  0  0  0  0  0  0  0  0  0  0  0
   -1.2966    0.3137    0.9959 H   0  0  0  0  0  0  0  0  0  0  0  0
    0.0593   -1.5665   -0.0177 H   0  0  0  0  0  0  0  0  0  0  0  0
    0.4496   -0.5505   -1.3974 H   0  0  0  0  0  0  0  0  0  0  0  0
    1.6559    0.9019    0.0927 H   0  0  0  0  0  0  0  0  0  0  0  0
    1.2933   -0.0424    1.3746 H   0  0  0  0  0  0  0  0  0  0  0  0
  1  6  1  0  0  0  0
  2  1  1  0  0  0  0
  2  7  1  0  0  0  0
  2  3  1  0  0  0  0
  3 10  1  0  0  0  0
  4  1  1  0  0  0  0
  5  1  1  0  0  0  0
  8  2  1  0  0  0  0
  9  3  1  0  0  0  0
M  END
>  <Charge>
0.0

>  <InChI>
1/C2H7N/c1-2-3/h2-3H2,1H3

>  <Molecular Formula>
C_{2}H_{7}N

>  <Name>
ETHYLAMINE

>  <SMILES>
CCN

>  <logK (BROMOBENZENE)>
2.0

>  <logK (CARBON TETRACHLORIDE)>
2.03

>  <logK (CHLOROBENZENE)>
2.75

>  <logK (CHLOROFORM)>
2.95

>  <logK (DECANE)>
1.414

>  <logK (ETHYLBENZENE)>
1.902

>  <logK (HEPTANE)>
1.53

>  <logK (HEXADECANE)>
1.677

>  <logK (HEXANE)>
1.68

>  <logK (IODOBENZENE)>
2.0

>  <logK (OCTANE)>
1.504

>  <mean polarizability>
5.86

>  <dipole moment>
1.25468947877

$$$$
253
 OpenBabel08101817183D

 13 12  0  0  0  0  0  0  0  0999 V2000
   -1.3799    0.6588    0.2185 C   0  0  0  0  0  0  0  0  0  0  0  0
   -0.6305   -0.6339   -0.1080 C   0  0  0  0  0  0  0  0  0  0  0  0
    0.8360   -0.6211    0.3251 C   0  0  0  0  0  0  0  0  0  0  0  0
    1.6081    0.3865   -0.4158 N   0  0  0  0  0  0  0  0  0  0  0  0
   -1.3437    0.8793    1.2960 H   0  0  0  0  0  0  0  0  0  0  0  0
   -2.4372    0.5898   -0.0700 H   0  0  0  0  0  0  0  0  0  0  0  0
   -0.9571    1.5197   -0.3182 H   0  0  0  0  0  0  0  0  0  0  0  0
   -0.6733   -0.8257   -1.1910 H   0  0  0  0  0  0  0  0  0  0  0  0
   -1.1287   -1.4811    0.3888 H   0  0  0  0  0  0  0  0  0  0  0  0
    0.8814   -0.4918    1.4264 H   0  0  0  0  0  0  0  0  0  0  0  0
    1.2814   -1.6025    0.1051 H   0  0  0  0  0  0  0  0  0  0  0  0
    2.6019    0.2955   -0.2059 H   0  0  0  0  0  0  0  0  0  0  0  0
    1.3419    1.3268   -0.1217 H   0  0  0  0  0  0  0  0  0  0  0  0
  1  5  1  0  0  0  0
  2  1  1  0  0  0  0
  2  3  1  0  0  0  0
  2  9  1  0  0  0  0
  3 10  1  0  0  0  0
  4 12  1  0  0  0  0
  4 13  1  0  0  0  0
  4  3  1  0  0  0  0
  6  1  1  0  0  0  0
  7  1  1  0  0  0  0
  8  2  1  0  0  0  0
 11  3  1  0  0  0  0
M  END
>  <Charge>
0.0

>  <InChI>
1/C3H9N/c1-2-3-4/h2-4H2,1H3

>  <Molecular Formula>
C_{3}H_{9}N

>  <Name>
PROPYLAMINE

>  <SMILES>
CCCN

>  <logK (BROMOBENZENE)>
2.62

>  <logK (CARBON TETRACHLORIDE)>
2.63

>  <logK (CHLOROBENZENE)>
2.63

>  <logK (CHLOROFORM)>
3.47

>  <logK (DECANE)>
2.174

>  <logK (DIBUTYL ETHER)>
2.14

>  <logK (ETHYLBENZENE)>
2.521

>  <logK (HEPTANE)>
2.22

>  <logK (HEXADECANE)>
2.141

>  <logK (HEXANE)>
2.26

>  <logK (IODOBENZENE)>
2.6

>  <logK (OCTANE)>
2.198

>  <logK (TOLUENE)>
2.58

>  <mean polarizability>
7.61

>  <dipole moment>
1.15116792317

$$$$
254
 OpenBabel08101817183D

 13 12  0  0  0  0  0  0  0  0999 V2000
   -1.1182   -0.7340    0.1439 C   0  0  0  0  0  0  0  0  0  0  0  0
    0.0489    0.2351    0.3785 C   0  0  0  0  0  0  0  0  0  0  0  0
    1.3746   -0.3680   -0.0823 C   0  0  0  0  0  0  0  0  0  0  0  0
   -0.1210    1.5506   -0.2608 N   0  0  0  0  0  0  0  0  0  0  0  0
   -0.9748   -1.6801    0.6869 H   0  0  0  0  0  0  0  0  0  0  0  0
   -1.2137   -0.9706   -0.9270 H   0  0  0  0  0  0  0  0  0  0  0  0
   -2.0687   -0.2949    0.4787 H   0  0  0  0  0  0  0  0  0  0  0  0
    0.1204    0.4292    1.4622 H   0  0  0  0  0  0  0  0  0  0  0  0
    2.2054    0.3181    0.1234 H   0  0  0  0  0  0  0  0  0  0  0  0
    1.3537   -0.5620   -1.1663 H   0  0  0  0  0  0  0  0  0  0  0  0
    1.5723   -1.3233    0.4215 H   0  0  0  0  0  0  0  0  0  0  0  0
   -1.0123    1.9649    0.0175 H   0  0  0  0  0  0  0  0  0  0  0  0
   -0.1666    1.4350   -1.2763 H   0  0  0  0  0  0  0  0  0  0  0  0
  1  2  1  0  0  0  0
  1  7  1  0  0  0  0
  1  5  1  0  0  0  0
  2  8  1  0  0  0  0
  3  9  1  0  0  0  0
  3  2  1  0  0  0  0
  3 11  1  0  0  0  0
  4 12  1  0  0  0  0
  4  2  1  0  0  0  0
  6  1  1  0  0  0  0
 10  3  1  0  0  0  0
 13  4  1  0  0  0  0
M  END
>  <Charge>
0.0

>  <InChI>
1/C3H9N/c1-3(2)4/h3H,4H2,1-2H3

>  <Molecular Formula>
C_{3}H_{9}N

>  <Name>
2-AMINOPROPANE

>  <SMILES>
CC(C)N

>  <logK (HEPTANE)>
1.924

>  <logK (HEXANE)>
2.04

>  <mean polarizability>
7.73

>  <dipole moment>
1.18713126144

$$$$
255
 OpenBabel08101817183D

 16 15  0  0  0  0  0  0  0  0999 V2000
   -2.3709    0.0371   -0.3009 C   0  0  0  0  0  0  0  0  0  0  0  0
   -1.1077    0.1293    0.5548 C   0  0  0  0  0  0  0  0  0  0  0  0
    0.1700   -0.0607   -0.2677 C   0  0  0  0  0  0  0  0  0  0  0  0
    1.4201    0.0381    0.6038 C   0  0  0  0  0  0  0  0  0  0  0  0
    2.6555   -0.1514   -0.2472 N   0  0  0  0  0  0  0  0  0  0  0  0
    3.0838    0.8384   -0.8396 O   0  0  0  0  0  0  0  0  0  0  0  0
    3.1230   -1.2873   -0.3192 O   0  0  0  0  0  0  0  0  0  0  0  0
   -3.2744    0.1637    0.3095 H   0  0  0  0  0  0  0  0  0  0  0  0
   -2.3817    0.8131   -1.0791 H   0  0  0  0  0  0  0  0  0  0  0  0
   -2.4408   -0.9381   -0.8029 H   0  0  0  0  0  0  0  0  0  0  0  0
   -1.0738    1.1073    1.0611 H   0  0  0  0  0  0  0  0  0  0  0  0
   -1.1448   -0.6293    1.3529 H   0  0  0  0  0  0  0  0  0  0  0  0
    0.1528   -1.0440   -0.7620 H   0  0  0  0  0  0  0  0  0  0  0  0
    0.2246    0.7023   -1.0585 H   0  0  0  0  0  0  0  0  0  0  0  0
    1.5144    1.0296    1.0607 H   0  0  0  0  0  0  0  0  0  0  0  0
    1.4498   -0.7479    1.3656 H   0  0  0  0  0  0  0  0  0  0  0  0
  1  8  1  0  0  0  0
  1  2  1  0  0  0  0
  2 11  1  0  0  0  0
  2 12  1  0  0  0  0
  3  2  1  0  0  0  0
  3  4  1  0  0  0  0
  4 15  1  0  0  0  0
  4 16  1  0  0  0  0
  5  4  1  0  0  0  0
  6  5  2  0  0  0  0
  7  5  2  0  0  0  0
  9  1  1  0  0  0  0
 10  1  1  0  0  0  0
 13  3  1  0  0  0  0
 14  3  1  0  0  0  0
M  END
>  <Charge>
0.0

>  <InChI>
1/C4H9NO2/c1-2-3-4-5(6)7/h2-4H2,1H3

>  <Molecular Formula>
C_{4}H_{9}NO_{2}

>  <Name>
1-NITROBUTANE

>  <SMILES>
CCCC[N+](=O)[O-]

>  <logK (DICHLOROETHANE)>
4.88

>  <logK (HEXADECANE)>
3.33

>  <logK (HEXANE)>
3.401

>  <mean polarizability>
10.56

>  <dipole moment>
4.00389763516

$$$$
256
 OpenBabel08101817183D

 39 38  0  0  0  0  0  0  0  0999 V2000
   -4.2451   -2.4062    0.6784 C   0  0  0  0  0  0  0  0  0  0  0  0
   -4.8368   -0.9970    0.6136 C   0  0  0  0  0  0  0  0  0  0  0  0
   -3.8307    0.1535    0.7649 C   0  0  0  0  0  0  0  0  0  0  0  0
   -2.7613    0.2566   -0.3422 C   0  0  0  0  0  0  0  0  0  0  0  0
   -1.4298   -0.4316   -0.0157 C   0  0  0  0  0  0  0  0  0  0  0  0
   -0.3938   -0.3818   -1.1482 C   0  0  0  0  0  0  0  0  0  0  0  0
    0.0681    1.0221   -1.5712 C   0  0  0  0  0  0  0  0  0  0  0  0
    0.7036    1.8702   -0.4582 C   0  0  0  0  0  0  0  0  0  0  0  0
    1.9576    1.2822    0.2048 C   0  0  0  0  0  0  0  0  0  0  0  0
    3.1491    1.1168   -0.7451 C   0  0  0  0  0  0  0  0  0  0  0  0
    4.4147    0.5228   -0.1077 C   0  0  0  0  0  0  0  0  0  0  0  0
    5.2362    1.4627    0.7635 C   0  0  0  0  0  0  0  0  0  0  0  0
    4.5314    1.7483    1.9820 O   0  0  0  0  0  0  0  0  0  0  0  0
   -3.6916   -2.5638    1.6156 H   0  0  0  0  0  0  0  0  0  0  0  0
   -3.5529   -2.5987   -0.1524 H   0  0  0  0  0  0  0  0  0  0  0  0
   -5.0355   -3.1677    0.6271 H   0  0  0  0  0  0  0  0  0  0  0  0
   -5.3723   -0.8727   -0.3424 H   0  0  0  0  0  0  0  0  0  0  0  0
   -5.6009   -0.8945    1.4005 H   0  0  0  0  0  0  0  0  0  0  0  0
   -4.4043    1.0924    0.7984 H   0  0  0  0  0  0  0  0  0  0  0  0
   -3.3312    0.0746    1.7457 H   0  0  0  0  0  0  0  0  0  0  0  0
   -2.5653    1.3195   -0.5487 H   0  0  0  0  0  0  0  0  0  0  0  0
   -3.1665   -0.1574   -1.2824 H   0  0  0  0  0  0  0  0  0  0  0  0
   -1.0100    0.0259    0.8954 H   0  0  0  0  0  0  0  0  0  0  0  0
   -1.6113   -1.4856    0.2421 H   0  0  0  0  0  0  0  0  0  0  0  0
    0.4824   -0.9782   -0.8482 H   0  0  0  0  0  0  0  0  0  0  0  0
   -0.8105   -0.8915   -2.0330 H   0  0  0  0  0  0  0  0  0  0  0  0
   -0.7852    1.5793   -1.9886 H   0  0  0  0  0  0  0  0  0  0  0  0
    0.7789    0.9152   -2.4057 H   0  0  0  0  0  0  0  0  0  0  0  0
   -0.0473    2.0627    0.3244 H   0  0  0  0  0  0  0  0  0  0  0  0
    0.9537    2.8599   -0.8755 H   0  0  0  0  0  0  0  0  0  0  0  0
    1.7220    0.3027    0.6529 H   0  0  0  0  0  0  0  0  0  0  0  0
    2.2540    1.9254    1.0442 H   0  0  0  0  0  0  0  0  0  0  0  0
    2.8564    0.4671   -1.5853 H   0  0  0  0  0  0  0  0  0  0  0  0
    3.3966    2.0945   -1.1955 H   0  0  0  0  0  0  0  0  0  0  0  0
    5.0867    0.1738   -0.9078 H   0  0  0  0  0  0  0  0  0  0  0  0
    4.1541   -0.3683    0.4865 H   0  0  0  0  0  0  0  0  0  0  0  0
    5.4413    2.3977    0.2082 H   0  0  0  0  0  0  0  0  0  0  0  0
    6.2081    0.9882    0.9904 H   0  0  0  0  0  0  0  0  0  0  0  0
    5.0869    2.3361    2.5152 H   0  0  0  0  0  0  0  0  0  0  0  0
  1 14  1  0  0  0  0
  2  1  1  0  0  0  0
  2  3  1  0  0  0  0
  2 18  1  0  0  0  0
  3 19  1  0  0  0  0
  3 20  1  0  0  0  0
  4  5  1  0  0  0  0
  4  3  1  0  0  0  0
  5 24  1  0  0  0  0
  5 23  1  0  0  0  0
  6 25  1  0  0  0  0
  6  5  1  0  0  0  0
  7  6  1  0  0  0  0
  7  8  1  0  0  0  0
  8  9  1  0  0  0  0
  8 29  1  0  0  0  0
  9 31  1  0  0  0  0
  9 32  1  0  0  0  0
 10 11  1  0  0  0  0
 10  9  1  0  0  0  0
 11 36  1  0  0  0  0
 11 12  1  0  0  0  0
 12 38  1  0  0  0  0
 12 13  1  0  0  0  0
 13 39  1  0  0  0  0
 15  1  1  0  0  0  0
 16  1  1  0  0  0  0
 17  2  1  0  0  0  0
 21  4  1  0  0  0  0
 22  4  1  0  0  0  0
 26  6  1  0  0  0  0
 27  7  1  0  0  0  0
 28  7  1  0  0  0  0
 30  8  1  0  0  0  0
 33 10  1  0  0  0  0
 34 10  1  0  0  0  0
 35 11  1  0  0  0  0
 37 12  1  0  0  0  0
M  END
>  <Charge>
0.0

>  <InChI>
1/C12H26O/c1-2-3-4-5-6-7-8-9-10-11-12-13/h13H,2-12H2,1H3

>  <Molecular Formula>
C_{12}H_{26}O

>  <Name>
DODECAN-1-OL

>  <SMILES>
CCCCCCCCCCCCO

>  <logK (2,2,4-TRIMETHYLPENTANE)>
6.321

>  <logK (HEXANE)>
6.79

>  <Formula>
C12H26O

>  <dipole moment>
1.5240271752

$$$$
257
 OpenBabel08101817183D

 16 15  0  0  0  0  0  0  0  0999 V2000
    2.2855    0.5006   -0.2934 C   0  0  0  0  0  0  0  0  0  0  0  0
    1.3054   -0.4929    0.3188 C   0  0  0  0  0  0  0  0  0  0  0  0
    0.3039   -0.9196   -0.6096 O   0  0  0  0  0  0  0  0  0  0  0  0
   -0.8180   -0.0475   -0.7063 C   0  0  0  0  0  0  0  0  0  0  0  0
   -1.9277   -0.4516    0.2688 C   0  0  0  0  0  0  0  0  0  0  0  0
   -3.0760    0.3922    0.1567 O   0  0  0  0  0  0  0  0  0  0  0  0
    3.0602    0.7720    0.4378 H   0  0  0  0  0  0  0  0  0  0  0  0
    2.7762    0.0622   -1.1717 H   0  0  0  0  0  0  0  0  0  0  0  0
    1.7830    1.4260   -0.6066 H   0  0  0  0  0  0  0  0  0  0  0  0
    1.8324   -1.4080    0.6243 H   0  0  0  0  0  0  0  0  0  0  0  0
    0.8367   -0.0690    1.2254 H   0  0  0  0  0  0  0  0  0  0  0  0
   -0.5248    1.0050   -0.5289 H   0  0  0  0  0  0  0  0  0  0  0  0
   -1.1960   -0.1115   -1.7367 H   0  0  0  0  0  0  0  0  0  0  0  0
   -2.2712   -1.4659    0.0275 H   0  0  0  0  0  0  0  0  0  0  0  0
   -1.5391   -0.4708    1.3027 H   0  0  0  0  0  0  0  0  0  0  0  0
   -2.8306    1.2789    0.4630 H   0  0  0  0  0  0  0  0  0  0  0  0
  1  2  1  0  0  0  0
  1  7  1  0  0  0  0
  2 10  1  0  0  0  0
  2 11  1  0  0  0  0
  3  2  1  0  0  0  0
  4  3  1  0  0  0  0
  4 12  1  0  0  0  0
  4  5  1  0  0  0  0
  5 15  1  0  0  0  0
  6  5  1  0  0  0  0
  6 16  1  0  0  0  0
  8  1  1  0  0  0  0
  9  1  1  0  0  0  0
 13  4  1  0  0  0  0
 14  5  1  0  0  0  0
M  END
>  <Charge>
0.0

>  <InChI>
1/C4H10O2/c1-2-6-4-3-5/h5H,2-4H2,1H3

>  <Molecular Formula>
C_{4}H_{10}O_{2}

>  <Name>
2-ETHOXYETHANOL

>  <SMILES>
CCOCCO

>  <logK (2-ETHOXYETHANOL)>
4.569

>  <logK (CARBON TETRACHLORIDE)>
3.572

>  <logK (CHLOROBENZENE)>
3.61

>  <logK (CHLOROFORM)>
4.592

>  <logK (DICHLOROMETHANE)>
4.443

>  <logK (DODECANE)>
2.81

>  <logK (HEPTANE)>
2.82

>  <logK (HEXANE)>
2.94

>  <logK (METHYL ACETATE)>
4.32

>  <mean polarizability>
9.62

>  <dipole moment>
2.41128438791

>  <experimental polarizability source>
@Article{Bosque2002, Title = {Polarizabilities of Solvents from the Chemical Composition}, Author = {Bosque, Ramon and Sales, Joaquim}, Journal = {Journal of Chemical Information and Computer Sciences}, Year = {2002}, Note = {PMID: 12377003}, Number = {5}, Pages = {1154-1163}, Volume = {42}, Doi = {10.1021/ci025528x}, Url = {https://doi.org/10.1021/ci025528x}}

>  <Formula>
C4H10O2

$$$$
258
 OpenBabel08101817183D

  9  8  0  0  0  0  0  0  0  0999 V2000
    1.3545   -0.1595    0.2290 C   0  0  0  0  0  0  0  0  0  0  0  0
    0.0782   -0.7690   -0.9019 S   0  0  0  0  0  0  0  0  0  0  0  0
   -1.3520    0.1355   -0.2571 C   0  0  0  0  0  0  0  0  0  0  0  0
    2.2946   -0.6426   -0.0616 H   0  0  0  0  0  0  0  0  0  0  0  0
    1.1259   -0.4274    1.2689 H   0  0  0  0  0  0  0  0  0  0  0  0
    1.4751    0.9285    0.1441 H   0  0  0  0  0  0  0  0  0  0  0  0
   -1.2060    1.2207   -0.3373 H   0  0  0  0  0  0  0  0  0  0  0  0
   -1.5566   -0.1352    0.7871 H   0  0  0  0  0  0  0  0  0  0  0  0
   -2.2135   -0.1511   -0.8714 H   0  0  0  0  0  0  0  0  0  0  0  0
  1  5  1  0  0  0  0
  2  3  1  0  0  0  0
  2  1  1  0  0  0  0
  3  8  1  0  0  0  0
  4  1  1  0  0  0  0
  6  1  1  0  0  0  0
  7  3  1  0  0  0  0
  9  3  1  0  0  0  0
M  END
>  <Charge>
0.0

>  <InChI>
1/C2H6S/c1-3-2/h1-2H3

>  <Molecular Formula>
C_{2}H_{6}S

>  <Name>
DIMETHYL SULFIDE

>  <SMILES>
CSC

>  <logK (2,2,4-TRIMETHYLPENTANE)>
2.128

>  <logK (HEXADECANE)>
2.238

>  <logK (HEXANE)>
2.175

>  <mean polarizability>
7.32

>  <dipole moment>
1.52707675794

$$$$
259
 OpenBabel08101817183D

 29 28  0  0  0  0  0  0  0  0999 V2000
   -1.1846    2.6232    0.3787 C   0  0  0  0  0  0  0  0  0  0  0  0
   -0.7444    1.3395    1.0978 C   0  0  0  0  0  0  0  0  0  0  0  0
    0.2355    0.1036    0.0379 Si  0  0  0  0  0  0  0  0  0  0  0  0
    0.7512   -1.3782    1.1175 C   0  0  0  0  0  0  0  0  0  0  0  0
   -0.3039   -1.9461    2.0798 C   0  0  0  0  0  0  0  0  0  0  0  0
    1.8128    0.9479   -0.6037 C   0  0  0  0  0  0  0  0  0  0  0  0
    2.7580    0.0497   -1.4163 C   0  0  0  0  0  0  0  0  0  0  0  0
   -0.7999   -0.4385   -1.4626 C   0  0  0  0  0  0  0  0  0  0  0  0
   -2.1395   -1.1289   -1.1664 C   0  0  0  0  0  0  0  0  0  0  0  0
   -0.3247    3.1869   -0.0095 H   0  0  0  0  0  0  0  0  0  0  0  0
   -1.7387    3.2967    1.0484 H   0  0  0  0  0  0  0  0  0  0  0  0
   -1.8407    2.4040   -0.4758 H   0  0  0  0  0  0  0  0  0  0  0  0
   -1.6260    0.8227    1.5104 H   0  0  0  0  0  0  0  0  0  0  0  0
   -0.1215    1.5939    1.9720 H   0  0  0  0  0  0  0  0  0  0  0  0
    1.6353   -1.0573    1.6947 H   0  0  0  0  0  0  0  0  0  0  0  0
    1.1167   -2.1757    0.4498 H   0  0  0  0  0  0  0  0  0  0  0  0
   -0.6430   -1.1881    2.7996 H   0  0  0  0  0  0  0  0  0  0  0  0
    0.0922   -2.7915    2.6610 H   0  0  0  0  0  0  0  0  0  0  0  0
   -1.1951   -2.3070    1.5483 H   0  0  0  0  0  0  0  0  0  0  0  0
    2.3477    1.3608    0.2682 H   0  0  0  0  0  0  0  0  0  0  0  0
    1.5177    1.8211   -1.2085 H   0  0  0  0  0  0  0  0  0  0  0  0
    3.1063   -0.8101   -0.8266 H   0  0  0  0  0  0  0  0  0  0  0  0
    3.6510    0.5954   -1.7538 H   0  0  0  0  0  0  0  0  0  0  0  0
    2.2650   -0.3505   -2.3135 H   0  0  0  0  0  0  0  0  0  0  0  0
   -0.1726   -1.0968   -2.0860 H   0  0  0  0  0  0  0  0  0  0  0  0
   -0.9731    0.4611   -2.0772 H   0  0  0  0  0  0  0  0  0  0  0  0
   -1.9949   -2.0836   -0.6424 H   0  0  0  0  0  0  0  0  0  0  0  0
   -2.6982   -1.3476   -2.0882 H   0  0  0  0  0  0  0  0  0  0  0  0
   -2.7881   -0.5064   -0.5334 H   0  0  0  0  0  0  0  0  0  0  0  0
  1 11  1  0  0  0  0
  1  2  1  0  0  0  0
  2 13  1  0  0  0  0
  2 14  1  0  0  0  0
  3  2  1  0  0  0  0
  3  4  1  0  0  0  0
  4 15  1  0  0  0  0
  4  5  1  0  0  0  0
  5 18  1  0  0  0  0
  5 17  1  0  0  0  0
  6  3  1  0  0  0  0
  6 20  1  0  0  0  0
  7 22  1  0  0  0  0
  7  6  1  0  0  0  0
  8  9  1  0  0  0  0
  8  3  1  0  0  0  0
  9 27  1  0  0  0  0
  9 29  1  0  0  0  0
 10  1  1  0  0  0  0
 12  1  1  0  0  0  0
 16  4  1  0  0  0  0
 19  5  1  0  0  0  0
 21  6  1  0  0  0  0
 23  7  1  0  0  0  0
 24  7  1  0  0  0  0
 25  8  1  0  0  0  0
 26  8  1  0  0  0  0
 28  9  1  0  0  0  0
M  END
>  <Charge>
0.0

>  <InChI>
1/C8H20Si/c1-5-9(6-2,7-3)8-4/h5-8H2,1-4H3

>  <Molecular Formula>
C_{8}H_{20}Si

>  <Name>
TETRAETHYLSILANE

>  <SMILES>
CC[Si](CC)(CC)CC

>  <logK (1,4-DIOXANE)>
3.89

>  <logK (ACETONE)>
3.84

>  <logK (HEXADECANE)>
4.33

>  <logK (HEXANE)>
4.64

>  <dipole moment>
0.0812424792133

>  <mean polarizability>
19.18

$$$$
260
 OpenBabel08101817183D

  1  0  0  0  0  0  0  0  0  0999 V2000
    0.0000    0.0000    0.0000 Hg  0  0  0  0  0 15  0  0  0  0  0  0
M  END
>  <Charge>
0.0

>  <InChI>
1/Hg

>  <Molecular Formula>
Hg

>  <Name>
MERCURY

>  <SMILES>
[Hg]

>  <logK (CARBON TETRACHLORIDE)>
1.87

>  <logK (HEXANE)>
1.74

$$$$
261
 OpenBabel08101817183D

 12 12  0  0  0  0  0  0  0  0999 V2000
   -1.1424    0.9370   -0.0178 C   0  0  0  0  0  0  0  0  0  0  0  0
   -1.4125   -0.4323   -0.0370 C   0  0  0  0  0  0  0  0  0  0  0  0
   -0.3642   -1.3498   -0.0213 C   0  0  0  0  0  0  0  0  0  0  0  0
    0.9601   -0.9050    0.0139 C   0  0  0  0  0  0  0  0  0  0  0  0
    1.2318    0.4720    0.0333 C   0  0  0  0  0  0  0  0  0  0  0  0
    0.1757    1.3871    0.0172 C   0  0  0  0  0  0  0  0  0  0  0  0
    2.8593    1.0622    0.0769 Cl  0  0  0  0  0  0  0  0  0  0  0  0
    2.2414   -2.0699    0.0328 Cl  0  0  0  0  0  0  0  0  0  0  0  0
   -1.9565    1.6607   -0.0300 H   0  0  0  0  0  0  0  0  0  0  0  0
   -2.4403   -0.7922   -0.0644 H   0  0  0  0  0  0  0  0  0  0  0  0
   -0.5568   -2.4212   -0.0358 H   0  0  0  0  0  0  0  0  0  0  0  0
    0.4042    2.4514    0.0324 H   0  0  0  0  0  0  0  0  0  0  0  0
  1  6  2  0  0  0  0
  2  3  2  0  0  0  0
  2  1  1  0  0  0  0
  3  4  1  0  0  0  0
  4  8  1  0  0  0  0
  4  5  2  0  0  0  0
  5  7  1  0  0  0  0
  6 12  1  0  0  0  0
  6  5  1  0  0  0  0
  9  1  1  0  0  0  0
 10  2  1  0  0  0  0
 11  3  1  0  0  0  0
M  END
>  <Charge>
0.0

>  <InChI>
1/C6H4Cl2/c7-5-3-1-2-4-6(5)8/h1-4H

>  <Molecular Formula>
C_{6}H_{4}Cl_{2}

>  <Name>
1,2-DICHLOROBENZENE

>  <SMILES>
c1ccc(c(c1)Cl)Cl

>  <logK (1,4-DIOXANE)>
5.14

>  <logK (2-BUTOXYETHANOL)>
4.74

>  <logK (2-ETHOXYETHANOL)>
4.849

>  <logK (BENZONITRILE)>
5.0

>  <logK (CARBON TETRACHLORIDE)>
4.98

>  <logK (DIMETHYLFORMAMIDE)>
5.0

>  <logK (FORMAMIDE)>
3.33

>  <logK (HEPTANE)>
4.405

>  <logK (HEXADECANE)>
4.405

>  <logK (HEXANE)>
4.5

>  <logK (PYRIDINE)>
5.177

>  <logK (TETRAHYDROFURAN)>
5.21

>  <logK (UNDECANE)>
4.35

>  <mean polarizability>
14.68

>  <dipole moment>
2.28642617785

$$$$
262
 OpenBabel08101817183D

 14 14  0  0  0  0  0  0  0  0999 V2000
   -1.9133   -0.0729   -0.0783 C   0  0  0  0  0  0  0  0  0  0  0  0
   -1.2835    0.9559    0.6257 C   0  0  0  0  0  0  0  0  0  0  0  0
    0.1088    1.0031    0.6787 C   0  0  0  0  0  0  0  0  0  0  0  0
    0.8731    0.0238    0.0294 C   0  0  0  0  0  0  0  0  0  0  0  0
    0.2342   -1.0081   -0.6768 C   0  0  0  0  0  0  0  0  0  0  0  0
   -1.1544   -1.0541   -0.7290 C   0  0  0  0  0  0  0  0  0  0  0  0
    2.3496    0.0938    0.0991 C   0  0  0  0  0  0  0  0  0  0  0  0
    3.1140   -0.6978   -0.4232 O   0  0  0  0  0  0  0  0  0  0  0  0
   -3.0020   -0.1126   -0.1217 H   0  0  0  0  0  0  0  0  0  0  0  0
   -1.8785    1.7169    1.1302 H   0  0  0  0  0  0  0  0  0  0  0  0
    0.6162    1.8011    1.2249 H   0  0  0  0  0  0  0  0  0  0  0  0
    0.8506   -1.7576   -1.1733 H   0  0  0  0  0  0  0  0  0  0  0  0
   -1.6548   -1.8530   -1.2763 H   0  0  0  0  0  0  0  0  0  0  0  0
    2.7401    0.9614    0.6908 H   0  0  0  0  0  0  0  0  0  0  0  0
  1  2  2  0  0  0  0
  2  3  1  0  0  0  0
  2 10  1  0  0  0  0
  3 11  1  0  0  0  0
  4  7  1  0  0  0  0
  4  3  2  0  0  0  0
  5  4  1  0  0  0  0
  6  5  2  0  0  0  0
  6  1  1  0  0  0  0
  7 14  1  0  0  0  0
  8  7  2  0  0  0  0
  9  1  1  0  0  0  0
 12  5  1  0  0  0  0
 13  6  1  0  0  0  0
M  END
>  <Charge>
0.0

>  <InChI>
1/C7H6O/c8-6-7-4-2-1-3-5-7/h1-6H

>  <Molecular Formula>
C_{7}H_{6}O

>  <Name>
BENZALDEHYDE

>  <SMILES>
c1ccc(cc1)C=O

>  <logK (CARBON TETRACHLORIDE)>
4.48

>  <logK (CHLOROFORM)>
5.2

>  <logK (HEPTANE)>
4.031

>  <logK (HEXADECANE)>
3.985

>  <logK (HEXANE)>
4.053

>  <mean polarizability>
12.93

>  <dipole moment>
3.44874435838

$$$$
263
 OpenBabel08101817183D

 17 17  0  0  0  0  0  0  0  0999 V2000
    2.7056   -0.3242    0.0921 C   0  0  0  0  0  0  0  0  0  0  0  0
    1.6393    0.7542    0.0837 C   0  0  0  0  0  0  0  0  0  0  0  0
    1.9482    1.9376    0.1424 O   0  0  0  0  0  0  0  0  0  0  0  0
    0.1991    0.3408    0.0006 C   0  0  0  0  0  0  0  0  0  0  0  0
   -0.7841    1.3436   -0.0063 C   0  0  0  0  0  0  0  0  0  0  0  0
   -2.1324    1.0100   -0.0847 C   0  0  0  0  0  0  0  0  0  0  0  0
   -2.5186   -0.3324   -0.1572 C   0  0  0  0  0  0  0  0  0  0  0  0
   -1.5503   -1.3381   -0.1505 C   0  0  0  0  0  0  0  0  0  0  0  0
   -0.1983   -1.0037   -0.0720 C   0  0  0  0  0  0  0  0  0  0  0  0
    2.6546   -0.9353   -0.8205 H   0  0  0  0  0  0  0  0  0  0  0  0
    3.6885    0.1514    0.1563 H   0  0  0  0  0  0  0  0  0  0  0  0
    2.5714   -1.0050    0.9449 H   0  0  0  0  0  0  0  0  0  0  0  0
   -0.4581    2.3818    0.0503 H   0  0  0  0  0  0  0  0  0  0  0  0
   -2.8886    1.7953   -0.0905 H   0  0  0  0  0  0  0  0  0  0  0  0
   -3.5753   -0.5938   -0.2192 H   0  0  0  0  0  0  0  0  0  0  0  0
   -1.8491   -2.3849   -0.2068 H   0  0  0  0  0  0  0  0  0  0  0  0
    0.5480   -1.7974   -0.0680 H   0  0  0  0  0  0  0  0  0  0  0  0
  1 11  1  0  0  0  0
  1 12  1  0  0  0  0
  2  1  1  0  0  0  0
  2  3  2  0  0  0  0
  4  2  1  0  0  0  0
  5  4  1  0  0  0  0
  5 13  1  0  0  0  0
  6  5  2  0  0  0  0
  7  8  2  0  0  0  0
  7  6  1  0  0  0  0
  8  9  1  0  0  0  0
  9 17  1  0  0  0  0
  9  4  2  0  0  0  0
 10  1  1  0  0  0  0
 14  6  1  0  0  0  0
 15  7  1  0  0  0  0
 16  8  1  0  0  0  0
M  END
>  <Charge>
0.0

>  <InChI>
1/C8H8O/c1-7(9)8-5-3-2-4-6-8/h2-6H,1H3

>  <Molecular Formula>
C_{8}H_{8}O

>  <Name>
ACETOPHENONE

>  <SMILES>
CC(=O)c1ccccc1

>  <logK (ACETOPHENONE)>
5.603

>  <logK (CARBON TETRACHLORIDE)>
5.26

>  <logK (CHLOROFORM)>
6.15

>  <logK (DICHLOROETHANE)>
5.74

>  <logK (DODECANE)>
4.48

>  <logK (HEXADECANE)>
4.483

>  <logK (HEXANE)>
4.434

>  <experimental polarizability source>
@Article{Bosque2002, Title = {Polarizabilities of Solvents from the Chemical Composition}, Author = {Bosque, Ramon and Sales, Joaquim}, Journal = {Journal of Chemical Information and Computer Sciences}, Year = {2002}, Note = {PMID: 12377003}, Number = {5}, Pages = {1154-1163}, Volume = {42}, Doi = {10.1021/ci025528x}, Url = {https://doi.org/10.1021/ci025528x}}

>  <Formula>
C8H8O

>  <mean polarizability>
14.76

>  <dipole moment>
3.09720467609

$$$$
264
 OpenBabel08101817183D

 17 17  0  0  0  0  0  0  0  0999 V2000
    1.7690   -0.8264    0.8678 C   0  0  0  0  0  0  0  0  0  0  0  0
    0.4417   -0.4835    0.2507 C   0  0  0  0  0  0  0  0  0  0  0  0
   -0.5031   -1.4716   -0.0367 C   0  0  0  0  0  0  0  0  0  0  0  0
   -1.7406   -1.1721   -0.6096 C   0  0  0  0  0  0  0  0  0  0  0  0
   -2.0424    0.1589   -0.9043 C   0  0  0  0  0  0  0  0  0  0  0  0
   -1.1218    1.1655   -0.6296 C   0  0  0  0  0  0  0  0  0  0  0  0
    0.1255    0.8640   -0.0522 C   0  0  0  0  0  0  0  0  0  0  0  0
    1.0305    1.8703    0.2156 N   0  0  0  0  0  0  0  0  0  0  0  0
    1.9121   -0.3274    1.8410 H   0  0  0  0  0  0  0  0  0  0  0  0
    2.6126   -0.5266    0.2236 H   0  0  0  0  0  0  0  0  0  0  0  0
    1.8548   -1.9062    1.0380 H   0  0  0  0  0  0  0  0  0  0  0  0
   -0.2541   -2.5084    0.1989 H   0  0  0  0  0  0  0  0  0  0  0  0
   -2.4563   -1.9651   -0.8219 H   0  0  0  0  0  0  0  0  0  0  0  0
   -3.0019    0.4194   -1.3520 H   0  0  0  0  0  0  0  0  0  0  0  0
   -1.3623    2.2051   -0.8618 H   0  0  0  0  0  0  0  0  0  0  0  0
    0.8089    2.8304    0.0023 H   0  0  0  0  0  0  0  0  0  0  0  0
    1.9274    1.6735    0.6300 H   0  0  0  0  0  0  0  0  0  0  0  0
  1 11  1  0  0  0  0
  1  9  1  0  0  0  0
  2  1  1  0  0  0  0
  3 12  1  0  0  0  0
  3  2  1  0  0  0  0
  4  3  2  0  0  0  0
  5  6  2  0  0  0  0
  5  4  1  0  0  0  0
  6  7  1  0  0  0  0
  7  8  1  0  0  0  0
  7  2  2  0  0  0  0
  8 17  1  0  0  0  0
 10  1  1  0  0  0  0
 13  4  1  0  0  0  0
 14  5  1  0  0  0  0
 15  6  1  0  0  0  0
 16  8  1  0  0  0  0
M  END
>  <Charge>
0.0

>  <InChI>
1/C7H9N/c1-6-4-2-3-5-7(6)8/h2-5H,8H2,1H3

>  <Molecular Formula>
C_{7}H_{9}N

>  <Name>
O-TOLUIDINE

>  <SMILES>
Cc1ccccc1N

>  <logK (2,2,4-TRIMETHYLPENTANE)>
4.67

>  <logK (CARBON TETRACHLORIDE)>
5.24

>  <logK (CHLOROFORM)>
6.02

>  <logK (DECANE)>
4.87

>  <logK (HEPTANE)>
4.56

>  <logK (HEXANE)>
4.49

>  <logK (OCTANE)>
4.65

>  <logK (TOLUENE)>
5.54

>  <mean polarizability>
14.07

>  <dipole moment>
2.08676194981

$$$$
265
 OpenBabel08101817183D

 17 17  0  0  0  0  0  0  0  0999 V2000
   -2.6473    0.0284   -0.6623 C   0  0  0  0  0  0  0  0  0  0  0  0
   -1.1863    0.0163   -0.2941 C   0  0  0  0  0  0  0  0  0  0  0  0
   -0.3154   -0.9588   -0.8027 C   0  0  0  0  0  0  0  0  0  0  0  0
    1.0354   -0.9823   -0.4715 C   0  0  0  0  0  0  0  0  0  0  0  0
    1.5797   -0.0157    0.3961 C   0  0  0  0  0  0  0  0  0  0  0  0
    0.7148    0.9657    0.9110 C   0  0  0  0  0  0  0  0  0  0  0  0
   -0.6359    0.9726    0.5674 C   0  0  0  0  0  0  0  0  0  0  0  0
    2.9186   -0.0335    0.7282 N   0  0  0  0  0  0  0  0  0  0  0  0
   -3.1495   -0.9040   -0.3635 H   0  0  0  0  0  0  0  0  0  0  0  0
   -3.1729    0.8588   -0.1736 H   0  0  0  0  0  0  0  0  0  0  0  0
   -2.7920    0.1370   -1.7477 H   0  0  0  0  0  0  0  0  0  0  0  0
   -0.7035   -1.7240   -1.4785 H   0  0  0  0  0  0  0  0  0  0  0  0
    1.6831   -1.7569   -0.8870 H   0  0  0  0  0  0  0  0  0  0  0  0
    1.1070    1.7288    1.5862 H   0  0  0  0  0  0  0  0  0  0  0  0
   -1.2804    1.7490    0.9849 H   0  0  0  0  0  0  0  0  0  0  0  0
    3.3087    0.6577    1.3495 H   0  0  0  0  0  0  0  0  0  0  0  0
    3.5359   -0.7389    0.3577 H   0  0  0  0  0  0  0  0  0  0  0  0
  1  9  1  0  0  0  0
  1  2  1  0  0  0  0
  1 10  1  0  0  0  0
  2  7  2  0  0  0  0
  3  4  2  0  0  0  0
  3  2  1  0  0  0  0
  4  5  1  0  0  0  0
  5  8  1  0  0  0  0
  5  6  2  0  0  0  0
  6 14  1  0  0  0  0
  7  6  1  0  0  0  0
  7 15  1  0  0  0  0
  8 16  1  0  0  0  0
 11  1  1  0  0  0  0
 12  3  1  0  0  0  0
 13  4  1  0  0  0  0
 17  8  1  0  0  0  0
M  END
>  <Charge>
0.0

>  <InChI>
1/C7H9N/c1-6-2-4-7(8)5-3-6/h2-5H,8H2,1H3

>  <Molecular Formula>
C_{7}H_{9}N

>  <Name>
P-TOLUIDINE

>  <SMILES>
Cc1ccc(cc1)N

>  <logK (2,2,4-TRIMETHYLPENTANE)>
4.61

>  <logK (CARBON TETRACHLORIDE)>
5.21

>  <logK (CHLOROFORM)>
6.04

>  <logK (DECANE)>
4.75

>  <logK (HEPTANE)>
4.5

>  <logK (HEXANE)>
4.44

>  <logK (OCTANE)>
4.61

>  <logK (TOLUENE)>
5.42

>  <mean polarizability>
14.27

>  <dipole moment>
1.6596106884

$$$$
266
 OpenBabel08101817183D

 24 24  0  0  0  0  0  0  0  0999 V2000
    0.0744    1.7986   -0.1615 C   0  0  0  0  0  0  0  0  0  0  0  0
    1.3967    1.1187    0.2548 C   0  0  0  0  0  0  0  0  0  0  0  0
    1.7751   -0.2050   -0.4349 C   0  0  0  0  0  0  0  0  0  0  0  0
    1.2802   -1.5091    0.2127 C   0  0  0  0  0  0  0  0  0  0  0  0
   -0.2227   -1.6003    0.5247 C   0  0  0  0  0  0  0  0  0  0  0  0
   -1.1398   -1.1013   -0.6114 C   0  0  0  0  0  0  0  0  0  0  0  0
   -1.9686    0.1443   -0.2564 C   0  0  0  0  0  0  0  0  0  0  0  0
   -1.2317    1.2822    0.4697 C   0  0  0  0  0  0  0  0  0  0  0  0
   -0.0095    1.7840   -1.2619 H   0  0  0  0  0  0  0  0  0  0  0  0
    0.1694    2.8612    0.1101 H   0  0  0  0  0  0  0  0  0  0  0  0
    2.2007    1.8391    0.0401 H   0  0  0  0  0  0  0  0  0  0  0  0
    1.4066    0.9867    1.3506 H   0  0  0  0  0  0  0  0  0  0  0  0
    2.8735   -0.2711   -0.4811 H   0  0  0  0  0  0  0  0  0  0  0  0
    1.4492   -0.1582   -1.4869 H   0  0  0  0  0  0  0  0  0  0  0  0
    1.8418   -1.6764    1.1462 H   0  0  0  0  0  0  0  0  0  0  0  0
    1.5598   -2.3399   -0.4561 H   0  0  0  0  0  0  0  0  0  0  0  0
   -0.4583   -2.6446    0.7758 H   0  0  0  0  0  0  0  0  0  0  0  0
   -0.4336   -1.0298    1.4414 H   0  0  0  0  0  0  0  0  0  0  0  0
   -0.5323   -0.8853   -1.5028 H   0  0  0  0  0  0  0  0  0  0  0  0
   -1.8322   -1.8971   -0.9217 H   0  0  0  0  0  0  0  0  0  0  0  0
   -2.4129    0.5442   -1.1824 H   0  0  0  0  0  0  0  0  0  0  0  0
   -2.8196   -0.1580    0.3760 H   0  0  0  0  0  0  0  0  0  0  0  0
   -1.0269    0.9941    1.5137 H   0  0  0  0  0  0  0  0  0  0  0  0
   -1.9393    2.1231    0.5413 H   0  0  0  0  0  0  0  0  0  0  0  0
  1 10  1  0  0  0  0
  1  2  1  0  0  0  0
  1  8  1  0  0  0  0
  2 12  1  0  0  0  0
  3  4  1  0  0  0  0
  3  2  1  0  0  0  0
  4  5  1  0  0  0  0
  4 15  1  0  0  0  0
  5 17  1  0  0  0  0
  5 18  1  0  0  0  0
  6  7  1  0  0  0  0
  6  5  1  0  0  0  0
  7 22  1  0  0  0  0
  7  8  1  0  0  0  0
  8 24  1  0  0  0  0
  8 23  1  0  0  0  0
  9  1  1  0  0  0  0
 11  2  1  0  0  0  0
 13  3  1  0  0  0  0
 14  3  1  0  0  0  0
 16  4  1  0  0  0  0
 19  6  1  0  0  0  0
 20  6  1  0  0  0  0
 21  7  1  0  0  0  0
M  END
>  <Charge>
0.0

>  <InChI>
1/C8H16/c1-2-4-6-8-7-5-3-1/h1-8H2

>  <Molecular Formula>
C_{8}H_{16}

>  <Name>
CYCLOOCTANE

>  <SMILES>
C1CCCCCCC1

>  <logK (2-BUTOXYETHANOL)>
3.78

>  <logK (2-ETHOXYETHANOL)>
3.603

>  <logK (CARBON TETRACHLORIDE)>
4.472

>  <logK (DIMETHYLFORMAMIDE)>
3.22

>  <logK (HEPTANE)>
4.273

>  <logK (METHOXYETHANOL)>
3.332

>  <logK (SULFOLANE)>
2.796

>  <experimental polarizability source>
@Article{Bosque2002, Title = {Polarizabilities of Solvents from the Chemical Composition}, Author = {Bosque, Ramon and Sales, Joaquim}, Journal = {Journal of Chemical Information and Computer Sciences}, Year = {2002}, Note = {PMID: 12377003}, Number = {5}, Pages = {1154-1163}, Volume = {42}, Doi = {10.1021/ci025528x}, Url = {https://doi.org/10.1021/ci025528x}}

>  <Formula>
C8H16

>  <dipole moment>
0.0806619538493

>  <mean polarizability>
14.45

$$$$
267
 OpenBabel08101817183D

 30 30  0  0  0  0  0  0  0  0999 V2000
   -2.0962   -0.4491   -1.0097 C   0  0  0  0  0  0  0  0  0  0  0  0
   -2.1387    0.7675   -0.0665 C   0  0  0  0  0  0  0  0  0  0  0  0
   -1.2437    1.9803   -0.3829 C   0  0  0  0  0  0  0  0  0  0  0  0
    0.2828    1.7953   -0.2814 C   0  0  0  0  0  0  0  0  0  0  0  0
    0.7920    1.2676    1.0715 C   0  0  0  0  0  0  0  0  0  0  0  0
    2.0962    0.4491    1.0097 C   0  0  0  0  0  0  0  0  0  0  0  0
    2.1387   -0.7675    0.0665 C   0  0  0  0  0  0  0  0  0  0  0  0
    1.2437   -1.9803    0.3829 C   0  0  0  0  0  0  0  0  0  0  0  0
   -0.2828   -1.7953    0.2814 C   0  0  0  0  0  0  0  0  0  0  0  0
   -0.7919   -1.2676   -1.0715 C   0  0  0  0  0  0  0  0  0  0  0  0
   -2.3423   -0.1154   -2.0318 H   0  0  0  0  0  0  0  0  0  0  0  0
   -2.9184   -1.1213   -0.7115 H   0  0  0  0  0  0  0  0  0  0  0  0
   -1.9588    0.4375    0.9680 H   0  0  0  0  0  0  0  0  0  0  0  0
   -3.1785    1.1313   -0.0620 H   0  0  0  0  0  0  0  0  0  0  0  0
   -1.5446    2.7937    0.2987 H   0  0  0  0  0  0  0  0  0  0  0  0
   -1.4802    2.3415   -1.3979 H   0  0  0  0  0  0  0  0  0  0  0  0
    0.6129    1.1292   -1.0881 H   0  0  0  0  0  0  0  0  0  0  0  0
    0.7610    2.7638   -0.4981 H   0  0  0  0  0  0  0  0  0  0  0  0
    0.0145    0.6587    1.5493 H   0  0  0  0  0  0  0  0  0  0  0  0
    0.9510    2.1153    1.7568 H   0  0  0  0  0  0  0  0  0  0  0  0
    2.9184    1.1213    0.7115 H   0  0  0  0  0  0  0  0  0  0  0  0
    2.3423    0.1154    2.0318 H   0  0  0  0  0  0  0  0  0  0  0  0
    1.9588   -0.4375   -0.9680 H   0  0  0  0  0  0  0  0  0  0  0  0
    3.1785   -1.1313    0.0620 H   0  0  0  0  0  0  0  0  0  0  0  0
    1.5446   -2.7937   -0.2987 H   0  0  0  0  0  0  0  0  0  0  0  0
    1.4802   -2.3415    1.3979 H   0  0  0  0  0  0  0  0  0  0  0  0
   -0.6129   -1.1292    1.0881 H   0  0  0  0  0  0  0  0  0  0  0  0
   -0.7610   -2.7638    0.4981 H   0  0  0  0  0  0  0  0  0  0  0  0
   -0.0145   -0.6587   -1.5493 H   0  0  0  0  0  0  0  0  0  0  0  0
   -0.9510   -2.1153   -1.7568 H   0  0  0  0  0  0  0  0  0  0  0  0
  1 12  1  0  0  0  0
  1  2  1  0  0  0  0
  2 14  1  0  0  0  0
  2 13  1  0  0  0  0
  3  4  1  0  0  0  0
  3  2  1  0  0  0  0
  3 15  1  0  0  0  0
  4  5  1  0  0  0  0
  5 19  1  0  0  0  0
  5 20  1  0  0  0  0
  6  5  1  0  0  0  0
  6 22  1  0  0  0  0
  7  8  1  0  0  0  0
  7  6  1  0  0  0  0
  8 26  1  0  0  0  0
  9  8  1  0  0  0  0
  9 28  1  0  0  0  0
  9 27  1  0  0  0  0
 10  1  1  0  0  0  0
 10  9  1  0  0  0  0
 11  1  1  0  0  0  0
 16  3  1  0  0  0  0
 17  4  1  0  0  0  0
 18  4  1  0  0  0  0
 21  6  1  0  0  0  0
 23  7  1  0  0  0  0
 24  7  1  0  0  0  0
 25  8  1  0  0  0  0
 29 10  1  0  0  0  0
 30 10  1  0  0  0  0
M  END
>  <Charge>
0.0

>  <InChI>
1/C10H20/c1-2-4-6-8-10-9-7-5-3-1/h1-10H2

>  <Molecular Formula>
C_{10}H_{20}

>  <Name>
CYCLODECANE

>  <SMILES>
C1CCCCCCCCC1

>  <logK (CARBON TETRACHLORIDE)>
5.436

>  <logK (HEPTANE)>
5.215

>  <dipole moment>
6.1363990474e-06

>  <mean polarizability>
18.12

$$$$
268
 OpenBabel08101817183D

 28 29  0  0  1  0  0  0  0  0999 V2000
    2.1726   -1.1080    0.2221 C   0  0  0  0  0  0  0  0  0  0  0  0
    1.1260   -1.3700   -0.8651 C   0  0  0  0  0  0  0  0  0  0  0  0
   -0.1684   -0.5552   -0.6211 C   0  0  2  0  0  0  0  0  0  0  0  0
    0.0818    0.6948    0.2456 C   0  0  2  0  0  0  0  0  0  0  0  0
   -1.1168    1.6525    0.1156 C   0  0  0  0  0  0  0  0  0  0  0  0
   -2.4548    0.8898   -0.0300 C   0  0  0  0  0  0  0  0  0  0  0  0
   -2.3919   -0.4820    0.6536 C   0  0  0  0  0  0  0  0  0  0  0  0
   -1.3015   -1.3801    0.0201 C   0  0  0  0  0  0  0  0  0  0  0  0
    1.4293    1.3295   -0.0965 C   0  0  0  0  0  0  0  0  0  0  0  0
    2.6006    0.3746    0.2384 C   0  0  0  0  0  0  0  0  0  0  0  0
    1.7548   -1.3878    1.2023 H   0  0  0  0  0  0  0  0  0  0  0  0
    3.0515   -1.7522    0.0748 H   0  0  0  0  0  0  0  0  0  0  0  0
    1.5588   -1.1002   -1.8415 H   0  0  0  0  0  0  0  0  0  0  0  0
    0.8880   -2.4433   -0.9244 H   0  0  0  0  0  0  0  0  0  0  0  0
   -0.5239   -0.1947   -1.6023 H   0  0  0  0  0  0  0  0  0  0  0  0
    0.1325    0.3618    1.2986 H   0  0  0  0  0  0  0  0  0  0  0  0
   -1.1492    2.3148    0.9949 H   0  0  0  0  0  0  0  0  0  0  0  0
   -0.9664    2.3071   -0.7586 H   0  0  0  0  0  0  0  0  0  0  0  0
   -2.6897    0.7459   -1.0963 H   0  0  0  0  0  0  0  0  0  0  0  0
   -3.2804    1.4874    0.3822 H   0  0  0  0  0  0  0  0  0  0  0  0
   -3.3707   -0.9805    0.6054 H   0  0  0  0  0  0  0  0  0  0  0  0
   -2.1807   -0.3349    1.7245 H   0  0  0  0  0  0  0  0  0  0  0  0
   -0.8743   -2.0414    0.7917 H   0  0  0  0  0  0  0  0  0  0  0  0
   -1.7433   -2.0418   -0.7409 H   0  0  0  0  0  0  0  0  0  0  0  0
    1.5518    2.2866    0.4332 H   0  0  0  0  0  0  0  0  0  0  0  0
    1.4322    1.5752   -1.1719 H   0  0  0  0  0  0  0  0  0  0  0  0
    3.0150    0.6209    1.2274 H   0  0  0  0  0  0  0  0  0  0  0  0
    3.4172    0.5307   -0.4823 H   0  0  0  0  0  0  0  0  0  0  0  0
  1 10  1  0  0  0  0
  1 11  1  0  0  0  0
  2  3  1  0  0  0  0
  2  1  1  0  0  0  0
  3 15  1  0  0  0  0
  3  8  1  0  0  0  0
  3  4  1  1  0  0  0
  4 16  1  1  0  0  0
  5  4  1  0  0  0  0
  5 17  1  0  0  0  0
  6  5  1  0  0  0  0
  6 20  1  0  0  0  0
  6  7  1  0  0  0  0
  7 22  1  0  0  0  0
  8  7  1  0  0  0  0
  8 23  1  0  0  0  0
  9 10  1  0  0  0  0
  9  4  1  0  0  0  0
  9 25  1  0  0  0  0
 10 27  1  0  0  0  0
 12  1  1  0  0  0  0
 13  2  1  0  0  0  0
 14  2  1  0  0  0  0
 18  5  1  0  0  0  0
 19  6  1  0  0  0  0
 21  7  1  0  0  0  0
 24  8  1  0  0  0  0
 26  9  1  0  0  0  0
 28 10  1  0  0  0  0
M  END
>  <Charge>
0.0

>  <InChI>
1/C10H18/c1-2-6-10-8-4-3-7-9(10)5-1/h9-10H,1-8H2/t9-,10+

>  <Molecular Formula>
C_{10}H_{18}

>  <Name>
CIS-DECALIN

>  <SMILES>
C1C[C@@H]2[C@@H](CCCC2)CC1

>  <logK (CARBON TETRACHLORIDE)>
5.303

>  <logK (HEPTANE)>
5.07

>  <dipole moment>
0.043059857379

>  <mean polarizability>
17.4

$$$$
269
 OpenBabel08101817183D

  8  7  0  0  0  0  0  0  0  0999 V2000
    0.7747   -0.0347   -0.0007 C   0  0  0  0  0  0  0  0  0  0  0  0
   -0.7356   -0.0236    0.0514 C   0  0  0  0  0  0  0  0  0  0  0  0
   -1.2448    0.9649   -0.8134 F   0  0  0  0  0  0  0  0  0  0  0  0
    1.1849    0.9334    0.3129 H   0  0  0  0  0  0  0  0  0  0  0  0
    1.1303   -0.2562   -1.0147 H   0  0  0  0  0  0  0  0  0  0  0  0
    1.1624   -0.8085    0.6767 H   0  0  0  0  0  0  0  0  0  0  0  0
   -1.1086    0.2093    1.0601 H   0  0  0  0  0  0  0  0  0  0  0  0
   -1.1633   -0.9844   -0.2723 H   0  0  0  0  0  0  0  0  0  0  0  0
  1  2  1  0  0  0  0
  1  4  1  0  0  0  0
  1  6  1  0  0  0  0
  2  7  1  0  0  0  0
  3  2  1  0  0  0  0
  5  1  1  0  0  0  0
  8  2  1  0  0  0  0
M  END
>  <Charge>
0.0

>  <InChI>
1/C2H5F/c1-2-3/h2H2,1H3

>  <Molecular Formula>
C_{2}H_{5}F

>  <Name>
FLUOROETHANE

>  <SMILES>
CCF

>  <logK (ACETIC ACID)>
1.03

>  <logK (DIMETHYLFORMAMIDE)>
1.43

>  <logK (HEPTANE)>
1.06

>  <logK (N-METHYLPYRROLIDONE)>
1.36

>  <logK (TETRAHYDROFURAN)>
1.31

>  <mean polarizability>
4.43

>  <dipole moment>
1.92779872395

$$$$
270
 OpenBabel08101817183D

  5  4  0  0  0  0  0  0  0  0999 V2000
   -0.0018   -0.0832    0.0033 C   0  0  0  0  0  0  0  0  0  0  0  0
   -0.0767   -0.9153   -1.0509 F   0  0  0  0  0  0  0  0  0  0  0  0
    0.0389   -0.8314    1.1203 F   0  0  0  0  0  0  0  0  0  0  0  0
    1.4863    0.8801   -0.1132 Cl  0  0  0  0  0  0  0  0  0  0  0  0
   -1.4467    0.9497    0.0404 Cl  0  0  0  0  0  0  0  0  0  0  0  0
  1  5  1  0  0  0  0
  1  3  1  0  0  0  0
  2  1  1  0  0  0  0
  4  1  1  0  0  0  0
M  END
>  <Charge>
0.0

>  <InChI>
1/CCl2F2/c2-1(3,4)5

>  <Molecular Formula>
CCl_{2}F_{2}

>  <Name>
DICHLORODIFLUOROMETHANE

>  <SMILES>
C(F)(F)(Cl)Cl

>  <logK (CARBON TETRACHLORIDE)>
1.41

>  <logK (CHLOROFORM)>
1.25

>  <logK (HEPTANE)>
1.32

>  <logK (OCTANE)>
1.29

>  <logK (TOLUENE)>
1.014

>  <mean polarizability>
6.8

>  <dipole moment>
0.397996466591

$$$$
271
 OpenBabel08101817183D

  5  4  0  0  0  0  0  0  0  0999 V2000
   -0.0761    0.0002    0.0048 C   0  0  0  0  0  0  0  0  0  0  0  0
   -0.5820   -1.0808   -0.6067 F   0  0  0  0  0  0  0  0  0  0  0  0
   -0.4601   -0.0137    1.2896 F   0  0  0  0  0  0  0  0  0  0  0  0
   -0.5751    1.0984   -0.5811 F   0  0  0  0  0  0  0  0  0  0  0  0
    1.6933   -0.0041   -0.1065 Cl  0  0  0  0  0  0  0  0  0  0  0  0
  1  3  1  0  0  0  0
  2  1  1  0  0  0  0
  4  1  1  0  0  0  0
  5  1  1  0  0  0  0
M  END
>  <Charge>
0.0

>  <InChI>
1/CClF3/c2-1(3,4)5

>  <Molecular Formula>
CClF_{3}

>  <Name>
CHLOROTRIFLUOROMETHANE

>  <SMILES>
C(F)(F)(F)Cl

>  <logK (CARBON TETRACHLORIDE)>
0.44

>  <logK (DIMETHYLFORMAMIDE)>
-0.06

>  <logK (HEPTANE)>
0.44

>  <logK (N-METHYLPYRROLIDONE)>
-0.17

>  <logK (OCTANE)>
0.39

>  <logK (TOLUENE)>
0.303

>  <mean polarizability>
4.87

>  <dipole moment>
0.353829557611

$$$$
272
 OpenBabel08101817183D

 25 24  0  0  0  0  0  0  0  0999 V2000
   -2.8206    0.9468    1.2776 C   0  0  0  0  0  0  0  0  0  0  0  0
   -2.8972    0.0064    0.0712 C   0  0  0  0  0  0  0  0  0  0  0  0
   -2.0397   -1.2701    0.1843 C   0  0  0  0  0  0  0  0  0  0  0  0
   -0.6238   -1.1811   -0.4039 C   0  0  0  0  0  0  0  0  0  0  0  0
    0.3123   -0.1679    0.2601 C   0  0  0  0  0  0  0  0  0  0  0  0
    1.7224   -0.2134   -0.3161 C   0  0  0  0  0  0  0  0  0  0  0  0
    2.6873    0.8066    0.2632 C   0  0  0  0  0  0  0  0  0  0  0  0
    2.3553    1.6079    1.1199 O   0  0  0  0  0  0  0  0  0  0  0  0
    4.1077    0.7869   -0.2804 C   0  0  0  0  0  0  0  0  0  0  0  0
   -1.8015    1.3100    1.4620 H   0  0  0  0  0  0  0  0  0  0  0  0
   -3.4651    1.8257    1.1368 H   0  0  0  0  0  0  0  0  0  0  0  0
   -3.1562    0.4342    2.1909 H   0  0  0  0  0  0  0  0  0  0  0  0
   -2.6167    0.5512   -0.8458 H   0  0  0  0  0  0  0  0  0  0  0  0
   -3.9493   -0.2852   -0.0697 H   0  0  0  0  0  0  0  0  0  0  0  0
   -1.9774   -1.5726    1.2435 H   0  0  0  0  0  0  0  0  0  0  0  0
   -2.5572   -2.0938   -0.3310 H   0  0  0  0  0  0  0  0  0  0  0  0
   -0.7025   -0.9468   -1.4800 H   0  0  0  0  0  0  0  0  0  0  0  0
   -0.1624   -2.1818   -0.3491 H   0  0  0  0  0  0  0  0  0  0  0  0
    0.3591   -0.3502    1.3449 H   0  0  0  0  0  0  0  0  0  0  0  0
   -0.0789    0.8529    0.1470 H   0  0  0  0  0  0  0  0  0  0  0  0
    1.7103   -0.0641   -1.4116 H   0  0  0  0  0  0  0  0  0  0  0  0
    2.1789   -1.2115   -0.1840 H   0  0  0  0  0  0  0  0  0  0  0  0
    4.2617    0.0325   -1.0609 H   0  0  0  0  0  0  0  0  0  0  0  0
    4.8031    0.5970    0.5484 H   0  0  0  0  0  0  0  0  0  0  0  0
    4.3505    1.7803   -0.6803 H   0  0  0  0  0  0  0  0  0  0  0  0
  1 10  1  0  0  0  0
  1 12  1  0  0  0  0
  2  3  1  0  0  0  0
  2  1  1  0  0  0  0
  3 15  1  0  0  0  0
  4 18  1  0  0  0  0
  4  3  1  0  0  0  0
  4  5  1  0  0  0  0
  5 19  1  0  0  0  0
  6 22  1  0  0  0  0
  6  5  1  0  0  0  0
  6  7  1  0  0  0  0
  7  8  2  0  0  0  0
  9  7  1  0  0  0  0
  9 24  1  0  0  0  0
 11  1  1  0  0  0  0
 13  2  1  0  0  0  0
 14  2  1  0  0  0  0
 16  3  1  0  0  0  0
 17  4  1  0  0  0  0
 20  5  1  0  0  0  0
 21  6  1  0  0  0  0
 23  9  1  0  0  0  0
 25  9  1  0  0  0  0
M  END
>  <Charge>
0.0

>  <InChI>
1/C8H16O/c1-3-4-5-6-7-8(2)9/h3-7H2,1-2H3

>  <Molecular Formula>
C_{8}H_{16}O

>  <Name>
2-OCTANONE

>  <SMILES>
CCCCCCC(=O)C

>  <logK (1,4-DIOXANE)>
5.01

>  <logK (CARBON TETRACHLORIDE)>
4.91

>  <logK (DIMETHYLFORMAMIDE)>
4.57

>  <logK (FORMAMIDE)>
3.71

>  <logK (HEPTANE)>
4.163

>  <logK (HEXADECANE)>
4.257

>  <logK (PYRIDINE)>
5.222

>  <mean polarizability>
15.85

>  <dipole moment>
2.70886069728

$$$$
273
 OpenBabel08101817183D

 16 15  0  0  1  0  0  0  0  0999 V2000
    1.6933   -0.4688    0.4394 C   0  0  0  0  0  0  0  0  0  0  0  0
    0.7256   -0.4319   -0.7444 C   0  0  0  0  0  0  0  0  0  0  0  0
   -0.6448    0.2098   -0.4605 C   0  0  1  0  0  0  0  0  0  0  0  0
   -1.4077   -0.4832    0.6670 C   0  0  0  0  0  0  0  0  0  0  0  0
   -0.4586    1.6284   -0.1086 N   0  0  0  0  0  0  0  0  0  0  0  0
    1.3348   -1.1317    1.2385 H   0  0  0  0  0  0  0  0  0  0  0  0
    1.8261    0.5322    0.8685 H   0  0  0  0  0  0  0  0  0  0  0  0
    2.6775   -0.8406    0.1242 H   0  0  0  0  0  0  0  0  0  0  0  0
    1.1908    0.1204   -1.5784 H   0  0  0  0  0  0  0  0  0  0  0  0
    0.5517   -1.4522   -1.1217 H   0  0  0  0  0  0  0  0  0  0  0  0
   -1.2436    0.0890   -1.3870 H   0  0  0  0  0  0  0  0  0  0  0  0
   -0.8834   -0.3702    1.6248 H   0  0  0  0  0  0  0  0  0  0  0  0
   -1.5299   -1.5545    0.4569 H   0  0  0  0  0  0  0  0  0  0  0  0
   -2.4121   -0.0500    0.7817 H   0  0  0  0  0  0  0  0  0  0  0  0
   -1.3587    2.0632    0.0975 H   0  0  0  0  0  0  0  0  0  0  0  0
   -0.0609    2.1401   -0.8979 H   0  0  0  0  0  0  0  0  0  0  0  0
  1  7  1  0  0  0  0
  1  6  1  0  0  0  0
  2  3  1  0  0  0  0
  2  1  1  0  0  0  0
  3 11  1  6  0  0  0
  3  5  1  0  0  0  0
  3  4  1  0  0  0  0
  4 14  1  0  0  0  0
  4 12  1  0  0  0  0
  5 15  1  0  0  0  0
  8  1  1  0  0  0  0
  9  2  1  0  0  0  0
 10  2  1  0  0  0  0
 13  4  1  0  0  0  0
 16  5  1  0  0  0  0
M  END
>  <Charge>
0.0

>  <InChI>
1/C4H11N/c1-3-4(2)5/h4H,3,5H2,1-2H3

>  <Molecular Formula>
C_{4}H_{11}N

>  <Name>
(.+/-.)-SEC-BUTYLAMINE

>  <SMILES>
CCC(C)N

>  <logK (HEPTANE)>
2.447

>  <mean polarizability>
9.43

>  <dipole moment>
1.22414339597

$$$$
274
 OpenBabel08101817183D

 19 18  0  0  0  0  0  0  0  0999 V2000
    2.3551    0.1351    0.3124 C   0  0  0  0  0  0  0  0  0  0  0  0
    1.1666    0.9539   -0.1954 C   0  0  0  0  0  0  0  0  0  0  0  0
    0.1581    0.1504   -1.0298 C   0  0  0  0  0  0  0  0  0  0  0  0
   -0.5679   -0.9796   -0.2864 C   0  0  0  0  0  0  0  0  0  0  0  0
   -1.4823   -0.5259    0.8645 C   0  0  0  0  0  0  0  0  0  0  0  0
   -2.6264    0.3205    0.5109 N   0  0  0  0  0  0  0  0  0  0  0  0
    2.0425   -0.6603    1.0025 H   0  0  0  0  0  0  0  0  0  0  0  0
    3.0742    0.7685    0.8488 H   0  0  0  0  0  0  0  0  0  0  0  0
    2.8899   -0.3432   -0.5215 H   0  0  0  0  0  0  0  0  0  0  0  0
    0.6564    1.4272    0.6589 H   0  0  0  0  0  0  0  0  0  0  0  0
    1.5410    1.7851   -0.8130 H   0  0  0  0  0  0  0  0  0  0  0  0
    0.6826   -0.2802   -1.8984 H   0  0  0  0  0  0  0  0  0  0  0  0
   -0.5894    0.8426   -1.4520 H   0  0  0  0  0  0  0  0  0  0  0  0
    0.1665   -1.6987    0.1123 H   0  0  0  0  0  0  0  0  0  0  0  0
   -1.1775   -1.5453   -1.0110 H   0  0  0  0  0  0  0  0  0  0  0  0
   -1.8765   -1.4186    1.3736 H   0  0  0  0  0  0  0  0  0  0  0  0
   -0.8954    0.0143    1.6232 H   0  0  0  0  0  0  0  0  0  0  0  0
   -2.3127    1.1967    0.0927 H   0  0  0  0  0  0  0  0  0  0  0  0
   -3.2048   -0.1423   -0.1925 H   0  0  0  0  0  0  0  0  0  0  0  0
  1  8  1  0  0  0  0
  1  7  1  0  0  0  0
  2  1  1  0  0  0  0
  2 10  1  0  0  0  0
  3  4  1  0  0  0  0
  3  2  1  0  0  0  0
  4 14  1  0  0  0  0
  4  5  1  0  0  0  0
  5 16  1  0  0  0  0
  5 17  1  0  0  0  0
  6  5  1  0  0  0  0
  9  1  1  0  0  0  0
 11  2  1  0  0  0  0
 12  3  1  0  0  0  0
 13  3  1  0  0  0  0
 15  4  1  0  0  0  0
 18  6  1  0  0  0  0
 19  6  1  0  0  0  0
M  END
>  <Charge>
0.0

>  <InChI>
1/C5H13N/c1-2-3-4-5-6/h2-6H2,1H3

>  <Molecular Formula>
C_{5}H_{13}N

>  <Name>
1-PENTYLAMINE

>  <SMILES>
CCCCCN

>  <logK (HEPTANE)>
3.48

>  <logK (HEXADECANE)>
3.086

>  <mean polarizability>
11.25

>  <dipole moment>
1.33461313688

$$$$
275
 OpenBabel08101817183D

 22 21  0  0  0  0  0  0  0  0999 V2000
    3.0432   -0.6676   -0.3264 C   0  0  0  0  0  0  0  0  0  0  0  0
    1.7253   -0.9274   -1.0594 C   0  0  0  0  0  0  0  0  0  0  0  0
    0.4781   -0.8594   -0.1670 C   0  0  0  0  0  0  0  0  0  0  0  0
    0.1600    0.5410    0.3660 C   0  0  0  0  0  0  0  0  0  0  0  0
   -1.0649    0.5977    1.2888 C   0  0  0  0  0  0  0  0  0  0  0  0
   -2.4086    0.3035    0.6153 C   0  0  0  0  0  0  0  0  0  0  0  0
   -2.6991    1.2850   -0.4390 N   0  0  0  0  0  0  0  0  0  0  0  0
    3.0837    0.3423    0.1034 H   0  0  0  0  0  0  0  0  0  0  0  0
    3.1842   -1.3839    0.4966 H   0  0  0  0  0  0  0  0  0  0  0  0
    3.9017   -0.7686   -1.0043 H   0  0  0  0  0  0  0  0  0  0  0  0
    1.7696   -1.9221   -1.5299 H   0  0  0  0  0  0  0  0  0  0  0  0
    1.6142   -0.2065   -1.8861 H   0  0  0  0  0  0  0  0  0  0  0  0
   -0.3824   -1.2322   -0.7438 H   0  0  0  0  0  0  0  0  0  0  0  0
    0.6031   -1.5550    0.6821 H   0  0  0  0  0  0  0  0  0  0  0  0
    1.0269    0.9290    0.9225 H   0  0  0  0  0  0  0  0  0  0  0  0
   -0.0000    1.2224   -0.4837 H   0  0  0  0  0  0  0  0  0  0  0  0
   -1.1221    1.5982    1.7512 H   0  0  0  0  0  0  0  0  0  0  0  0
   -0.9340   -0.1116    2.1226 H   0  0  0  0  0  0  0  0  0  0  0  0
   -3.1882    0.2527    1.4007 H   0  0  0  0  0  0  0  0  0  0  0  0
   -2.3811   -0.6903    0.1434 H   0  0  0  0  0  0  0  0  0  0  0  0
   -2.8460    2.2081   -0.0270 H   0  0  0  0  0  0  0  0  0  0  0  0
   -3.5634    1.0450   -0.9241 H   0  0  0  0  0  0  0  0  0  0  0  0
  1  8  1  0  0  0  0
  1  9  1  0  0  0  0
  2  1  1  0  0  0  0
  2  3  1  0  0  0  0
  3  4  1  0  0  0  0
  3 14  1  0  0  0  0
  4 15  1  0  0  0  0
  4  5  1  0  0  0  0
  5 17  1  0  0  0  0
  5 18  1  0  0  0  0
  6  5  1  0  0  0  0
  6 19  1  0  0  0  0
  7 21  1  0  0  0  0
  7  6  1  0  0  0  0
 10  1  1  0  0  0  0
 11  2  1  0  0  0  0
 12  2  1  0  0  0  0
 13  3  1  0  0  0  0
 16  4  1  0  0  0  0
 20  6  1  0  0  0  0
 22  7  1  0  0  0  0
M  END
>  <Charge>
0.0

>  <InChI>
1/C6H15N/c1-2-3-4-5-6-7/h2-7H2,1H3

>  <Molecular Formula>
C_{6}H_{15}N

>  <Name>
HEXYLAMINE

>  <SMILES>
CCCCCCN

>  <logK (HEPTANE)>
3.99

>  <logK (HEXADECANE)>
3.557

>  <mean polarizability>
13.19

>  <dipole moment>
1.21428879055

$$$$
276
 OpenBabel08101817183D

 25 24  0  0  0  0  0  0  0  0999 V2000
    3.8021    0.2780   -0.4197 C   0  0  0  0  0  0  0  0  0  0  0  0
    2.4040   -0.3083   -0.2229 C   0  0  0  0  0  0  0  0  0  0  0  0
    1.6832    0.2693    0.9986 C   0  0  0  0  0  0  0  0  0  0  0  0
    0.3039   -0.3380    1.2805 C   0  0  0  0  0  0  0  0  0  0  0  0
   -0.7589   -0.0446    0.2171 C   0  0  0  0  0  0  0  0  0  0  0  0
   -2.1383   -0.5993    0.5775 C   0  0  0  0  0  0  0  0  0  0  0  0
   -3.2242   -0.3393   -0.4784 C   0  0  0  0  0  0  0  0  0  0  0  0
   -3.5843    1.0580   -0.7387 N   0  0  0  0  0  0  0  0  0  0  0  0
    4.3021   -0.1507   -1.2986 H   0  0  0  0  0  0  0  0  0  0  0  0
    4.4404    0.0848    0.4547 H   0  0  0  0  0  0  0  0  0  0  0  0
    3.7588    1.3677   -0.5603 H   0  0  0  0  0  0  0  0  0  0  0  0
    2.4741   -1.4034   -0.1135 H   0  0  0  0  0  0  0  0  0  0  0  0
    1.8055   -0.1319   -1.1299 H   0  0  0  0  0  0  0  0  0  0  0  0
    1.5824    1.3619    0.8767 H   0  0  0  0  0  0  0  0  0  0  0  0
    2.3233    0.1241    1.8845 H   0  0  0  0  0  0  0  0  0  0  0  0
   -0.0589    0.0374    2.2514 H   0  0  0  0  0  0  0  0  0  0  0  0
    0.4051   -1.4306    1.3993 H   0  0  0  0  0  0  0  0  0  0  0  0
   -0.8219    1.0481    0.0736 H   0  0  0  0  0  0  0  0  0  0  0  0
   -0.4486   -0.4644   -0.7540 H   0  0  0  0  0  0  0  0  0  0  0  0
   -2.0594   -1.6887    0.7359 H   0  0  0  0  0  0  0  0  0  0  0  0
   -2.4660   -0.1736    1.5422 H   0  0  0  0  0  0  0  0  0  0  0  0
   -2.9123   -0.7842   -1.4372 H   0  0  0  0  0  0  0  0  0  0  0  0
   -4.1441   -0.8672   -0.1842 H   0  0  0  0  0  0  0  0  0  0  0  0
   -2.7736    1.5845   -1.0650 H   0  0  0  0  0  0  0  0  0  0  0  0
   -3.8946    1.5105    0.1228 H   0  0  0  0  0  0  0  0  0  0  0  0
  1  2  1  0  0  0  0
  1 10  1  0  0  0  0
  2 12  1  0  0  0  0
  2  3  1  0  0  0  0
  3  4  1  0  0  0  0
  3 15  1  0  0  0  0
  4 17  1  0  0  0  0
  4 16  1  0  0  0  0
  5  6  1  0  0  0  0
  5  4  1  0  0  0  0
  6 20  1  0  0  0  0
  6 21  1  0  0  0  0
  7 23  1  0  0  0  0
  7  6  1  0  0  0  0
  8  7  1  0  0  0  0
  8 25  1  0  0  0  0
  9  1  1  0  0  0  0
 11  1  1  0  0  0  0
 13  2  1  0  0  0  0
 14  3  1  0  0  0  0
 18  5  1  0  0  0  0
 19  5  1  0  0  0  0
 22  7  1  0  0  0  0
 24  8  1  0  0  0  0
M  END
>  <Charge>
0.0

>  <InChI>
1/C7H17N/c1-2-3-4-5-6-7-8/h2-8H2,1H3

>  <Molecular Formula>
C_{7}H_{17}N

>  <Name>
HEPTYLAMINE

>  <SMILES>
CCCCCCCN

>  <logK (HEPTANE)>
4.52

>  <logK (HEXADECANE)>
4.05

>  <mean polarizability>
15.28

>  <dipole moment>
1.32827449624

$$$$
277
 OpenBabel08101817183D

 28 27  0  0  0  0  0  0  0  0999 V2000
   -4.0384    0.0748    0.9103 C   0  0  0  0  0  0  0  0  0  0  0  0
   -2.8360    0.0102   -0.0318 C   0  0  0  0  0  0  0  0  0  0  0  0
   -1.8927   -1.1536    0.2838 C   0  0  0  0  0  0  0  0  0  0  0  0
   -0.7145   -1.3063   -0.6888 C   0  0  0  0  0  0  0  0  0  0  0  0
    0.2725   -0.1302   -0.7387 C   0  0  0  0  0  0  0  0  0  0  0  0
    0.9983    0.1410    0.5826 C   0  0  0  0  0  0  0  0  0  0  0  0
    2.0337    1.2710    0.5029 C   0  0  0  0  0  0  0  0  0  0  0  0
    3.2965    0.9391   -0.2981 C   0  0  0  0  0  0  0  0  0  0  0  0
    4.0494   -0.1536    0.3330 N   0  0  0  0  0  0  0  0  0  0  0  0
   -4.6991    0.9184    0.6678 H   0  0  0  0  0  0  0  0  0  0  0  0
   -3.7174    0.1935    1.9556 H   0  0  0  0  0  0  0  0  0  0  0  0
   -4.6378   -0.8456    0.8533 H   0  0  0  0  0  0  0  0  0  0  0  0
   -3.1867   -0.0821   -1.0735 H   0  0  0  0  0  0  0  0  0  0  0  0
   -2.2850    0.9626    0.0182 H   0  0  0  0  0  0  0  0  0  0  0  0
   -2.4741   -2.0906    0.2759 H   0  0  0  0  0  0  0  0  0  0  0  0
   -1.5187   -1.0470    1.3155 H   0  0  0  0  0  0  0  0  0  0  0  0
   -0.1566   -2.2205   -0.4278 H   0  0  0  0  0  0  0  0  0  0  0  0
   -1.1153   -1.4745   -1.7024 H   0  0  0  0  0  0  0  0  0  0  0  0
   -0.2496    0.7862   -1.0620 H   0  0  0  0  0  0  0  0  0  0  0  0
    1.0126   -0.3446   -1.5258 H   0  0  0  0  0  0  0  0  0  0  0  0
    1.5009   -0.7787    0.9208 H   0  0  0  0  0  0  0  0  0  0  0  0
    0.2617    0.3988    1.3592 H   0  0  0  0  0  0  0  0  0  0  0  0
    1.5696    2.1705    0.0653 H   0  0  0  0  0  0  0  0  0  0  0  0
    2.3398    1.5567    1.5239 H   0  0  0  0  0  0  0  0  0  0  0  0
    3.8861    1.8681   -0.4247 H   0  0  0  0  0  0  0  0  0  0  0  0
    3.0211    0.6079   -1.3108 H   0  0  0  0  0  0  0  0  0  0  0  0
    4.4401    0.1573    1.2239 H   0  0  0  0  0  0  0  0  0  0  0  0
    4.8394   -0.4290   -0.2498 H   0  0  0  0  0  0  0  0  0  0  0  0
  1 11  1  0  0  0  0
  2 14  1  0  0  0  0
  2  3  1  0  0  0  0
  2  1  1  0  0  0  0
  3 16  1  0  0  0  0
  4 17  1  0  0  0  0
  4  3  1  0  0  0  0
  5  4  1  0  0  0  0
  5  6  1  0  0  0  0
  6 21  1  0  0  0  0
  6 22  1  0  0  0  0
  7  6  1  0  0  0  0
  7 24  1  0  0  0  0
  8  9  1  0  0  0  0
  8  7  1  0  0  0  0
  9 27  1  0  0  0  0
 10  1  1  0  0  0  0
 12  1  1  0  0  0  0
 13  2  1  0  0  0  0
 15  3  1  0  0  0  0
 18  4  1  0  0  0  0
 19  5  1  0  0  0  0
 20  5  1  0  0  0  0
 23  7  1  0  0  0  0
 25  8  1  0  0  0  0
 26  8  1  0  0  0  0
 28  9  1  0  0  0  0
M  END
>  <Charge>
0.0

>  <InChI>
1/C8H19N/c1-2-3-4-5-6-7-8-9/h2-9H2,1H3

>  <Molecular Formula>
C_{8}H_{19}N

>  <Name>
OCTYLAMINE

>  <SMILES>
CCCCCCCCN

>  <logK (HEPTANE)>
5.04

>  <logK (HEXADECANE)>
4.52

>  <mean polarizability>
16.97

>  <dipole moment>
1.2607282053

$$$$
278
 OpenBabel08101817183D

 28 27  0  0  0  0  0  0  0  0999 V2000
   -3.8556    0.3804   -1.0162 C   0  0  0  0  0  0  0  0  0  0  0  0
   -2.8787    0.1029    0.1267 C   0  0  0  0  0  0  0  0  0  0  0  0
   -1.8788    1.2384    0.3502 C   0  0  0  0  0  0  0  0  0  0  0  0
   -0.9040    1.0013    1.5187 C   0  0  0  0  0  0  0  0  0  0  0  0
    0.0125   -0.1331    1.4208 N   0  0  0  0  0  0  0  0  0  0  0  0
    0.9482   -0.0925    0.3019 C   0  0  0  0  0  0  0  0  0  0  0  0
    1.9337   -1.2586    0.3725 C   0  0  0  0  0  0  0  0  0  0  0  0
    2.9030   -1.3337   -0.8127 C   0  0  0  0  0  0  0  0  0  0  0  0
    3.8679   -0.1497   -0.9102 C   0  0  0  0  0  0  0  0  0  0  0  0
   -3.3223    0.5252   -1.9669 H   0  0  0  0  0  0  0  0  0  0  0  0
   -4.5649   -0.4467   -1.1553 H   0  0  0  0  0  0  0  0  0  0  0  0
   -4.4395    1.2923   -0.8252 H   0  0  0  0  0  0  0  0  0  0  0  0
   -2.3354   -0.8338   -0.0811 H   0  0  0  0  0  0  0  0  0  0  0  0
   -3.4406   -0.0725    1.0595 H   0  0  0  0  0  0  0  0  0  0  0  0
   -1.3138    1.4187   -0.5792 H   0  0  0  0  0  0  0  0  0  0  0  0
   -2.4298    2.1726    0.5520 H   0  0  0  0  0  0  0  0  0  0  0  0
   -0.2905    1.9062    1.6597 H   0  0  0  0  0  0  0  0  0  0  0  0
   -1.4841    0.8738    2.4473 H   0  0  0  0  0  0  0  0  0  0  0  0
   -0.5067   -1.0116    1.4102 H   0  0  0  0  0  0  0  0  0  0  0  0
    1.4888    0.8659    0.3669 H   0  0  0  0  0  0  0  0  0  0  0  0
    0.4568   -0.1029   -0.6957 H   0  0  0  0  0  0  0  0  0  0  0  0
    2.4953   -1.1908    1.3177 H   0  0  0  0  0  0  0  0  0  0  0  0
    1.3588   -2.1990    0.4235 H   0  0  0  0  0  0  0  0  0  0  0  0
    3.4837   -2.2654   -0.7322 H   0  0  0  0  0  0  0  0  0  0  0  0
    2.3270   -1.4171   -1.7493 H   0  0  0  0  0  0  0  0  0  0  0  0
    4.4460   -0.0346    0.0186 H   0  0  0  0  0  0  0  0  0  0  0  0
    4.5832   -0.2859   -1.7326 H   0  0  0  0  0  0  0  0  0  0  0  0
    3.3398    0.7967   -1.0900 H   0  0  0  0  0  0  0  0  0  0  0  0
  1 12  1  0  0  0  0
  1  2  1  0  0  0  0
  2  3  1  0  0  0  0
  2 14  1  0  0  0  0
  3 16  1  0  0  0  0
  3  4  1  0  0  0  0
  4 17  1  0  0  0  0
  4 18  1  0  0  0  0
  5  4  1  0  0  0  0
  6 20  1  0  0  0  0
  6  7  1  0  0  0  0
  6  5  1  0  0  0  0
  7 23  1  0  0  0  0
  7 22  1  0  0  0  0
  8 24  1  0  0  0  0
  8  7  1  0  0  0  0
  9  8  1  0  0  0  0
  9 26  1  0  0  0  0
 10  1  1  0  0  0  0
 11  1  1  0  0  0  0
 13  2  1  0  0  0  0
 15  3  1  0  0  0  0
 19  5  1  0  0  0  0
 21  6  1  0  0  0  0
 25  8  1  0  0  0  0
 27  9  1  0  0  0  0
 28  9  1  0  0  0  0
M  END
>  <Charge>
0.0

>  <InChI>
1/C8H19N/c1-3-5-7-9-8-6-4-2/h9H,3-8H2,1-2H3

>  <Molecular Formula>
C_{8}H_{19}N

>  <Name>
DIBUTYLAMINE

>  <SMILES>
CCCCNCCCC

>  <logK (HEPTANE)>
4.59

>  <mean polarizability>
17.13

>  <dipole moment>
0.879785903537

$$$$
279
 OpenBabel08101817183D

 17 17  0  0  0  0  0  0  0  0999 V2000
    1.4586    0.4973    0.4251 C   0  0  0  0  0  0  0  0  0  0  0  0
    1.3123   -0.9512   -0.1372 C   0  0  0  0  0  0  0  0  0  0  0  0
   -0.1603   -1.0897   -0.5662 C   0  0  0  0  0  0  0  0  0  0  0  0
   -0.9144   -0.0555    0.2801 C   0  0  0  0  0  0  0  0  0  0  0  0
    0.0643    1.1378    0.2856 C   0  0  0  0  0  0  0  0  0  0  0  0
   -2.2776    0.1698   -0.1980 N   0  0  0  0  0  0  0  0  0  0  0  0
    1.7649    0.4673    1.4797 H   0  0  0  0  0  0  0  0  0  0  0  0
    2.2286    1.0722   -0.1052 H   0  0  0  0  0  0  0  0  0  0  0  0
    2.0001   -1.1420   -0.9707 H   0  0  0  0  0  0  0  0  0  0  0  0
    1.5550   -1.6875    0.6410 H   0  0  0  0  0  0  0  0  0  0  0  0
   -0.5606   -2.1039   -0.4454 H   0  0  0  0  0  0  0  0  0  0  0  0
   -0.2810   -0.8193   -1.6291 H   0  0  0  0  0  0  0  0  0  0  0  0
   -0.9980   -0.4428    1.3108 H   0  0  0  0  0  0  0  0  0  0  0  0
   -0.1588    1.8690    1.0753 H   0  0  0  0  0  0  0  0  0  0  0  0
   -0.0286    1.6625   -0.6800 H   0  0  0  0  0  0  0  0  0  0  0  0
   -2.2541    0.5509   -1.1466 H   0  0  0  0  0  0  0  0  0  0  0  0
   -2.7507    0.8648    0.3808 H   0  0  0  0  0  0  0  0  0  0  0  0
  1  7  1  0  0  0  0
  2  1  1  0  0  0  0
  2 10  1  0  0  0  0
  3 11  1  0  0  0  0
  3  2  1  0  0  0  0
  3  4  1  0  0  0  0
  4  5  1  0  0  0  0
  4 13  1  0  0  0  0
  5  1  1  0  0  0  0
  5 14  1  0  0  0  0
  6  4  1  0  0  0  0
  6 17  1  0  0  0  0
  8  1  1  0  0  0  0
  9  2  1  0  0  0  0
 12  3  1  0  0  0  0
 15  5  1  0  0  0  0
 16  6  1  0  0  0  0
M  END
>  <Charge>
0.0

>  <InChI>
1/C5H11N/c6-5-3-1-2-4-5/h5H,1-4,6H2

>  <Molecular Formula>
C_{5}H_{11}N

>  <Name>
CYCLOPENTYLAMINE

>  <SMILES>
C1CCC(C1)N

>  <logK (HEPTANE)>
2.902

>  <mean polarizability>
10.51

>  <dipole moment>
1.19230680243

$$$$
280
 OpenBabel08101817183D

 13 12  0  0  0  0  0  0  0  0999 V2000
    0.1297    1.3707   -0.3093 C   0  0  0  0  0  0  0  0  0  0  0  0
    0.1769   -0.1509   -0.3500 C   0  0  0  0  0  0  0  0  0  0  0  0
   -1.1561   -0.8089   -0.0195 C   0  0  0  0  0  0  0  0  0  0  0  0
    1.2240   -0.6336    0.6649 N   0  0  0  0  0  0  0  0  0  0  0  0
    2.1871   -1.2603    0.2266 O   0  0  0  0  0  0  0  0  0  0  0  0
    1.0282   -0.3609    1.8473 O   0  0  0  0  0  0  0  0  0  0  0  0
    1.1106    1.8097   -0.5310 H   0  0  0  0  0  0  0  0  0  0  0  0
   -0.2010    1.7193    0.6765 H   0  0  0  0  0  0  0  0  0  0  0  0
   -0.5831    1.7271   -1.0641 H   0  0  0  0  0  0  0  0  0  0  0  0
    0.5701   -0.5102   -1.3076 H   0  0  0  0  0  0  0  0  0  0  0  0
   -1.0800   -1.9033   -0.0375 H   0  0  0  0  0  0  0  0  0  0  0  0
   -1.5062   -0.4931    0.9707 H   0  0  0  0  0  0  0  0  0  0  0  0
   -1.9002   -0.5054   -0.7672 H   0  0  0  0  0  0  0  0  0  0  0  0
  1  8  1  0  0  0  0
  2  1  1  0  0  0  0
  2  3  1  0  0  0  0
  2  4  1  0  0  0  0
  3 12  1  0  0  0  0
  4  6  2  0  0  0  0
  5  4  2  0  0  0  0
  7  1  1  0  0  0  0
  9  1  1  0  0  0  0
 10  2  1  0  0  0  0
 11  3  1  0  0  0  0
 13  3  1  0  0  0  0
M  END
>  <Charge>
0.0

>  <InChI>
1/C3H7NO2/c1-3(2)4(5)6/h3H,1-2H3

>  <Molecular Formula>
C_{3}H_{7}NO_{2}

>  <Name>
2-NITROPROPANE

>  <SMILES>
CC(C)[N+](=O)[O-]

>  <logK (CARBON TETRACHLORIDE)>
3.35

>  <logK (HEPTANE)>
2.79

>  <logK (HEXADECANE)>
2.55

>  <mean polarizability>
8.5

>  <dipole moment>
3.7438539426

$$$$
281
 OpenBabel08101817183D

 12 12  0  0  0  0  0  0  0  0999 V2000
    0.6311   -1.2473    0.0695 C   0  0  0  0  0  0  0  0  0  0  0  0
   -0.7613   -1.1736    0.0450 C   0  0  0  0  0  0  0  0  0  0  0  0
   -1.3839    0.0733   -0.0243 C   0  0  0  0  0  0  0  0  0  0  0  0
   -0.6311    1.2473   -0.0695 C   0  0  0  0  0  0  0  0  0  0  0  0
    0.7613    1.1736   -0.0450 C   0  0  0  0  0  0  0  0  0  0  0  0
    1.3839   -0.0733    0.0243 C   0  0  0  0  0  0  0  0  0  0  0  0
    3.1220   -0.1654    0.0550 Cl  0  0  0  0  0  0  0  0  0  0  0  0
   -3.1220    0.1654   -0.0550 Cl  0  0  0  0  0  0  0  0  0  0  0  0
    1.1299   -2.2132    0.1235 H   0  0  0  0  0  0  0  0  0  0  0  0
   -1.3609   -2.0813    0.0797 H   0  0  0  0  0  0  0  0  0  0  0  0
   -1.1299    2.2132   -0.1235 H   0  0  0  0  0  0  0  0  0  0  0  0
    1.3609    2.0813   -0.0797 H   0  0  0  0  0  0  0  0  0  0  0  0
  1  9  1  0  0  0  0
  2  1  1  0  0  0  0
  2 10  1  0  0  0  0
  3  2  2  0  0  0  0
  4  5  2  0  0  0  0
  4  3  1  0  0  0  0
  5  6  1  0  0  0  0
  6  7  1  0  0  0  0
  6  1  2  0  0  0  0
  8  3  1  0  0  0  0
 11  4  1  0  0  0  0
 12  5  1  0  0  0  0
M  END
>  <Charge>
0.0

>  <InChI>
1/C6H4Cl2/c7-5-1-2-6(8)4-3-5/h1-4H

>  <Molecular Formula>
C_{6}H_{4}Cl_{2}

>  <Name>
1,4-DICHLOROBENZENE

>  <SMILES>
c1cc(ccc1Cl)Cl

>  <logK (CARBON TETRACHLORIDE)>
4.6

>  <logK (CHLOROFORM)>
4.63

>  <logK (HEPTANE)>
4.258

>  <logK (HEXADECANE)>
4.4

>  <mean polarizability>
15.01

>  <dipole moment>
7.51197204743e-12

$$$$
282
 OpenBabel08101817183D

 12 12  0  0  0  0  0  0  0  0999 V2000
    0.2219    1.3877   -0.0319 C   0  0  0  0  0  0  0  0  0  0  0  0
   -1.0910    0.8865    0.0028 C   0  0  0  0  0  0  0  0  0  0  0  0
   -1.3129   -0.5012    0.0347 C   0  0  0  0  0  0  0  0  0  0  0  0
   -0.2219   -1.3877    0.0319 C   0  0  0  0  0  0  0  0  0  0  0  0
    1.0910   -0.8865   -0.0028 C   0  0  0  0  0  0  0  0  0  0  0  0
    1.3129    0.5012   -0.0347 C   0  0  0  0  0  0  0  0  0  0  0  0
    2.9177    1.1139   -0.0774 Cl  0  0  0  0  0  0  0  0  0  0  0  0
    2.4245   -1.9702   -0.0061 Cl  0  0  0  0  0  0  0  0  0  0  0  0
   -0.4932   -3.0840    0.0707 Cl  0  0  0  0  0  0  0  0  0  0  0  0
   -2.9177   -1.1139    0.0774 Cl  0  0  0  0  0  0  0  0  0  0  0  0
   -2.4245    1.9702    0.0061 Cl  0  0  0  0  0  0  0  0  0  0  0  0
    0.4932    3.0840   -0.0707 Cl  0  0  0  0  0  0  0  0  0  0  0  0
  1  2  1  0  0  0  0
  2 11  1  0  0  0  0
  2  3  2  0  0  0  0
  3 10  1  0  0  0  0
  4  3  1  0  0  0  0
  4  9  1  0  0  0  0
  5  4  2  0  0  0  0
  6  1  2  0  0  0  0
  6  5  1  0  0  0  0
  7  6  1  0  0  0  0
  8  5  1  0  0  0  0
 12  1  1  0  0  0  0
M  END
>  <Charge>
0.0

>  <InChI>
1/C6Cl6/c7-1-2(8)4(10)6(12)5(11)3(1)9

>  <Molecular Formula>
C_{6}Cl_{6}

>  <Name>
HEXACHLOROBENZENE

>  <SMILES>
c1(c(c(c(c(c1Cl)Cl)Cl)Cl)Cl)Cl

>  <logK (1-CHLOROBUTANE)>
7.792

>  <logK (HEPTANE)>
7.508

>  <logK (TETRAHYDROFURAN)>
8.09

>  <mean polarizability>
24.18

>  <dipole moment>
1.12629706333e-11

$$$$
283
 OpenBabel08101817183D

 12 12  0  0  0  0  0  0  0  0999 V2000
   -1.4830    0.0348   -0.0086 C   0  0  0  0  0  0  0  0  0  0  0  0
   -0.7541    1.2251   -0.0190 C   0  0  0  0  0  0  0  0  0  0  0  0
    0.6428    1.2010   -0.0110 C   0  0  0  0  0  0  0  0  0  0  0  0
    1.2988   -0.0305    0.0076 C   0  0  0  0  0  0  0  0  0  0  0  0
    0.5856   -1.2300    0.0182 C   0  0  0  0  0  0  0  0  0  0  0  0
   -0.8109   -1.1884    0.0100 C   0  0  0  0  0  0  0  0  0  0  0  0
    3.4166   -0.0800    0.0196 I   0  0  0  0  0  0  0  0  0  0  0  0
   -2.5723    0.0604   -0.0150 H   0  0  0  0  0  0  0  0  0  0  0  0
   -1.2704    2.1852   -0.0335 H   0  0  0  0  0  0  0  0  0  0  0  0
    1.2103    2.1299   -0.0191 H   0  0  0  0  0  0  0  0  0  0  0  0
    1.1086   -2.1845    0.0326 H   0  0  0  0  0  0  0  0  0  0  0  0
   -1.3719   -2.1232    0.0182 H   0  0  0  0  0  0  0  0  0  0  0  0
  1  6  2  0  0  0  0
  2  3  2  0  0  0  0
  2  1  1  0  0  0  0
  3  4  1  0  0  0  0
  4  5  2  0  0  0  0
  4  7  1  0  0  0  0
  5 11  1  0  0  0  0
  6  5  1  0  0  0  0
  6 12  1  0  0  0  0
  8  1  1  0  0  0  0
  9  2  1  0  0  0  0
 10  3  1  0  0  0  0
M  END
>  <Charge>
0.0

>  <InChI>
1/C6H5I/c7-6-4-2-1-3-5-6/h1-5H

>  <Molecular Formula>
C_{6}H_{5}I

>  <Name>
IODOBENZENE

>  <SMILES>
c1ccc(cc1)I

>  <logK (1,4-DIOXANE)>
5.29

>  <logK (BENZONITRILE)>
5.118

>  <logK (CARBON TETRACHLORIDE)>
5.15

>  <logK (CHLOROFORM)>
4.85

>  <logK (DIMETHYLFORMAMIDE)>
5.2

>  <logK (HEPTANE)>
4.595

>  <logK (HEXADECANE)>
4.58

>  <logK (IODOBENZENE)>
5.22

>  <logK (PYRIDINE)>
5.4

>  <logK (TETRAHYDROFURAN)>
5.41

>  <mean polarizability>
15.09

>  <dipole moment>
1.62088551203

>  <Formula>
C6H5I

$$$$
284
 OpenBabel08101817183D

 16 16  0  0  0  0  0  0  0  0999 V2000
   -2.3365    0.1767    0.0501 C   0  0  0  0  0  0  0  0  0  0  0  0
   -0.8506   -0.0716    0.0194 C   0  0  0  0  0  0  0  0  0  0  0  0
   -0.3424   -1.3784    0.0193 C   0  0  0  0  0  0  0  0  0  0  0  0
    1.0350   -1.5988   -0.0091 C   0  0  0  0  0  0  0  0  0  0  0  0
    1.9330   -0.5327   -0.0380 C   0  0  0  0  0  0  0  0  0  0  0  0
    1.4331    0.7717   -0.0382 C   0  0  0  0  0  0  0  0  0  0  0  0
    0.0516    0.9972   -0.0097 C   0  0  0  0  0  0  0  0  0  0  0  0
    2.3411    1.8007   -0.0671 O   0  0  0  0  0  0  0  0  0  0  0  0
   -2.8326   -0.2785   -0.8190 H   0  0  0  0  0  0  0  0  0  0  0  0
   -2.7937   -0.2634    0.9479 H   0  0  0  0  0  0  0  0  0  0  0  0
   -2.5675    1.2491    0.0460 H   0  0  0  0  0  0  0  0  0  0  0  0
   -1.0298   -2.2249    0.0417 H   0  0  0  0  0  0  0  0  0  0  0  0
    1.4194   -2.6192   -0.0089 H   0  0  0  0  0  0  0  0  0  0  0  0
    3.0100   -0.6926   -0.0605 H   0  0  0  0  0  0  0  0  0  0  0  0
   -0.3264    2.0235   -0.0102 H   0  0  0  0  0  0  0  0  0  0  0  0
    1.8563    2.6413   -0.0637 H   0  0  0  0  0  0  0  0  0  0  0  0
  1 10  1  0  0  0  0
  2  1  1  0  0  0  0
  3  2  1  0  0  0  0
  3 12  1  0  0  0  0
  4 13  1  0  0  0  0
  4  3  2  0  0  0  0
  5  4  1  0  0  0  0
  6  5  2  0  0  0  0
  6  7  1  0  0  0  0
  7  2  2  0  0  0  0
  8 16  1  0  0  0  0
  8  6  1  0  0  0  0
  9  1  1  0  0  0  0
 11  1  1  0  0  0  0
 14  5  1  0  0  0  0
 15  7  1  0  0  0  0
M  END
>  <Charge>
0.0

>  <InChI>
1/C7H8O/c1-6-3-2-4-7(8)5-6/h2-5,8H,1H3

>  <Molecular Formula>
C_{7}H_{8}O

>  <Name>
M-CRESOL

>  <SMILES>
Cc1cccc(c1)O

>  <logK (CHLOROFORM)>
5.49

>  <logK (HEPTANE)>
4.233

>  <logK (HEXADECANE)>
4.329

>  <logK (IODOBENZENE)>
5.0

>  <logK (OCTANE)>
4.243

>  <mean polarizability>
13.19

>  <dipole moment>
1.59523069676

>  <Formula>
C7H8O

$$$$
285
 OpenBabel08101817183D

 16 16  0  0  0  0  0  0  0  0999 V2000
   -2.4865   -0.1634   -0.0369 C   0  0  0  0  0  0  0  0  0  0  0  0
   -0.9855   -0.0327   -0.0093 C   0  0  0  0  0  0  0  0  0  0  0  0
   -0.1594   -1.1500   -0.1918 C   0  0  0  0  0  0  0  0  0  0  0  0
    1.2302   -1.0397   -0.1679 C   0  0  0  0  0  0  0  0  0  0  0  0
    1.8286    0.2076    0.0417 C   0  0  0  0  0  0  0  0  0  0  0  0
    1.0252    1.3351    0.2259 C   0  0  0  0  0  0  0  0  0  0  0  0
   -0.3627    1.2051    0.1988 C   0  0  0  0  0  0  0  0  0  0  0  0
    3.1909    0.3801    0.0757 O   0  0  0  0  0  0  0  0  0  0  0  0
   -2.8465   -0.8491    0.7441 H   0  0  0  0  0  0  0  0  0  0  0  0
   -2.9730    0.8070    0.1225 H   0  0  0  0  0  0  0  0  0  0  0  0
   -2.8397   -0.5592   -1.0003 H   0  0  0  0  0  0  0  0  0  0  0  0
   -0.6088   -2.1311   -0.3566 H   0  0  0  0  0  0  0  0  0  0  0  0
    1.8525   -1.9261   -0.3127 H   0  0  0  0  0  0  0  0  0  0  0  0
    1.4979    2.3031    0.3883 H   0  0  0  0  0  0  0  0  0  0  0  0
   -0.9788    2.0943    0.3441 H   0  0  0  0  0  0  0  0  0  0  0  0
    3.6154   -0.4808   -0.0657 H   0  0  0  0  0  0  0  0  0  0  0  0
  1  2  1  0  0  0  0
  1 10  1  0  0  0  0
  1  9  1  0  0  0  0
  2  7  2  0  0  0  0
  3  4  2  0  0  0  0
  3  2  1  0  0  0  0
  4  5  1  0  0  0  0
  5  8  1  0  0  0  0
  5  6  2  0  0  0  0
  6 14  1  0  0  0  0
  7  6  1  0  0  0  0
  7 15  1  0  0  0  0
 11  1  1  0  0  0  0
 12  3  1  0  0  0  0
 13  4  1  0  0  0  0
 16  8  1  0  0  0  0
M  END
>  <Charge>
0.0

>  <InChI>
1/C7H8O/c1-6-2-4-7(8)5-3-6/h2-5,8H,1H3

>  <Molecular Formula>
C_{7}H_{8}O

>  <Name>
P-CRESOL

>  <SMILES>
Cc1ccc(cc1)O

>  <logK (2,2,4-TRIMETHYLPENTANE)>
4.097

>  <logK (BROMOBENZENE)>
5.22

>  <logK (CARBON TETRACHLORIDE)>
4.72

>  <logK (CHLOROFORM)>
5.56

>  <logK (HEPTANE)>
4.142

>  <logK (HEXADECANE)>
4.307

>  <logK (IODOBENZENE)>
5.18

>  <logK (OCTANE)>
4.13

>  <mean polarizability>
13.22

>  <dipole moment>
1.32350280272

$$$$
286
 OpenBabel08101817183D

 14 14  0  0  0  0  0  0  0  0999 V2000
   -0.3917    1.5578    0.2934 C   0  0  0  0  0  0  0  0  0  0  0  0
   -1.3736    0.5894    0.0725 C   0  0  0  0  0  0  0  0  0  0  0  0
   -0.9816   -0.7303   -0.1742 C   0  0  0  0  0  0  0  0  0  0  0  0
    0.3726   -1.0759   -0.1993 C   0  0  0  0  0  0  0  0  0  0  0  0
    1.3374   -0.0910    0.0244 C   0  0  0  0  0  0  0  0  0  0  0  0
    0.9623    1.2352    0.2728 C   0  0  0  0  0  0  0  0  0  0  0  0
    2.6786   -0.3742    0.0111 O   0  0  0  0  0  0  0  0  0  0  0  0
   -1.8831   -1.7393   -0.4008 O   0  0  0  0  0  0  0  0  0  0  0  0
   -0.6927    2.5876    0.4860 H   0  0  0  0  0  0  0  0  0  0  0  0
   -2.4320    0.8545    0.0912 H   0  0  0  0  0  0  0  0  0  0  0  0
    0.6537   -2.1122   -0.3941 H   0  0  0  0  0  0  0  0  0  0  0  0
    1.7319    1.9853    0.4441 H   0  0  0  0  0  0  0  0  0  0  0  0
    2.7959   -1.3201   -0.1709 H   0  0  0  0  0  0  0  0  0  0  0  0
   -2.7779   -1.3669   -0.3559 H   0  0  0  0  0  0  0  0  0  0  0  0
  1  9  1  0  0  0  0
  2 10  1  0  0  0  0
  2  1  2  0  0  0  0
  3  2  1  0  0  0  0
  4  3  2  0  0  0  0
  4  5  1  0  0  0  0
  5  6  2  0  0  0  0
  6  1  1  0  0  0  0
  6 12  1  0  0  0  0
  7  5  1  0  0  0  0
  8 14  1  0  0  0  0
  8  3  1  0  0  0  0
 11  4  1  0  0  0  0
 13  7  1  0  0  0  0
M  END
>  <Charge>
0.0

>  <InChI>
1/C6H6O2/c7-5-2-1-3-6(8)4-5/h1-4,7-8H

>  <Molecular Formula>
C_{6}H_{6}O_{2}

>  <Name>
RESORCINOL

>  <SMILES>
c1cc(cc(c1)O)O

>  <logK (CHLOROFORM)>
7.01

>  <logK (HEPTANE)>
4.281

>  <mean polarizability>
11.99

>  <dipole moment>
1.24655749969

$$$$
287
 OpenBabel08101817183D

 26 25  0  0  1  0  0  0  0  0999 V2000
    3.8682    0.4745   -0.1022 C   0  0  0  0  0  0  0  0  0  0  0  0
    2.7068   -0.4740    0.1922 C   0  0  0  0  0  0  0  0  0  0  0  0
    1.3401    0.1157   -0.1648 C   0  0  0  0  0  0  0  0  0  0  0  0
    0.1816   -0.8475    0.1036 C   0  0  0  0  0  0  0  0  0  0  0  0
   -1.2126   -0.3526   -0.3202 C   0  0  1  0  0  0  0  0  0  0  0  0
   -2.2138   -1.5129   -0.2785 C   0  0  0  0  0  0  0  0  0  0  0  0
   -1.6844    0.8391    0.5317 C   0  0  0  0  0  0  0  0  0  0  0  0
   -2.9718    1.5061    0.0435 C   0  0  0  0  0  0  0  0  0  0  0  0
    3.7708    1.4109    0.4661 H   0  0  0  0  0  0  0  0  0  0  0  0
    3.9026    0.7397   -1.1689 H   0  0  0  0  0  0  0  0  0  0  0  0
    4.8357    0.0257    0.1600 H   0  0  0  0  0  0  0  0  0  0  0  0
    2.7144   -0.7487    1.2598 H   0  0  0  0  0  0  0  0  0  0  0  0
    2.8493   -1.4163   -0.3619 H   0  0  0  0  0  0  0  0  0  0  0  0
    1.2005    1.0528    0.3980 H   0  0  0  0  0  0  0  0  0  0  0  0
    1.3364    0.3994   -1.2316 H   0  0  0  0  0  0  0  0  0  0  0  0
    0.3887   -1.7934   -0.4248 H   0  0  0  0  0  0  0  0  0  0  0  0
    0.1577   -1.1047    1.1777 H   0  0  0  0  0  0  0  0  0  0  0  0
   -1.1383   -0.0049   -1.3676 H   0  0  0  0  0  0  0  0  0  0  0  0
   -3.2088   -1.2175   -0.6354 H   0  0  0  0  0  0  0  0  0  0  0  0
   -2.3258   -1.8917    0.7493 H   0  0  0  0  0  0  0  0  0  0  0  0
   -1.8723   -2.3492   -0.9045 H   0  0  0  0  0  0  0  0  0  0  0  0
   -1.8155    0.4948    1.5722 H   0  0  0  0  0  0  0  0  0  0  0  0
   -0.8880    1.5977    0.5616 H   0  0  0  0  0  0  0  0  0  0  0  0
   -3.2215    2.3808    0.6591 H   0  0  0  0  0  0  0  0  0  0  0  0
   -2.8678    1.8518   -0.9956 H   0  0  0  0  0  0  0  0  0  0  0  0
   -3.8320    0.8246    0.0812 H   0  0  0  0  0  0  0  0  0  0  0  0
  1 11  1  0  0  0  0
  1  2  1  0  0  0  0
  1  9  1  0  0  0  0
  2 12  1  0  0  0  0
  3  4  1  0  0  0  0
  3  2  1  0  0  0  0
  3 14  1  0  0  0  0
  4 17  1  0  0  0  0
  5 18  1  6  0  0  0
  5  6  1  0  0  0  0
  5  4  1  0  0  0  0
  5  7  1  0  0  0  0
  6 20  1  0  0  0  0
  7 23  1  0  0  0  0
  7 22  1  0  0  0  0
  8 26  1  0  0  0  0
  8  7  1  0  0  0  0
  8 24  1  0  0  0  0
 10  1  1  0  0  0  0
 13  2  1  0  0  0  0
 15  3  1  0  0  0  0
 16  4  1  0  0  0  0
 19  6  1  0  0  0  0
 21  6  1  0  0  0  0
 25  8  1  0  0  0  0
M  END
>  <Charge>
0.0

>  <InChI>
1/C8H18/c1-4-6-7-8(3)5-2/h8H,4-7H2,1-3H3

>  <Molecular Formula>
C_{8}H_{18}

>  <Name>
3-METHYLHEPTANE

>  <SMILES>
CCCCC(C)CC

>  <logK (OCTANE)>
3.27

>  <mean polarizability>
15.68

>  <dipole moment>
0.0720569886835

$$$$
288
 OpenBabel08101817183D

 19 18  0  0  0  0  0  0  0  0999 V2000
   -2.6191    0.7886    0.7183 C   0  0  0  0  0  0  0  0  0  0  0  0
   -1.7353    0.1737   -0.3664 C   0  0  0  0  0  0  0  0  0  0  0  0
   -0.2805   -0.0111    0.0724 C   0  0  0  0  0  0  0  0  0  0  0  0
    0.5923   -0.6438   -1.0154 C   0  0  0  0  0  0  0  0  0  0  0  0
    2.0574   -0.9119   -0.6084 C   0  0  0  0  0  0  0  0  0  0  0  0
    2.8629    0.3490   -0.4284 C   0  0  0  0  0  0  0  0  0  0  0  0
    3.8474    0.6358   -1.0786 O   0  0  0  0  0  0  0  0  0  0  0  0
   -2.2512    1.7809    1.0163 H   0  0  0  0  0  0  0  0  0  0  0  0
   -3.6549    0.9081    0.3739 H   0  0  0  0  0  0  0  0  0  0  0  0
   -2.6386    0.1593    1.6197 H   0  0  0  0  0  0  0  0  0  0  0  0
   -1.7623    0.8068   -1.2681 H   0  0  0  0  0  0  0  0  0  0  0  0
   -2.1468   -0.8029   -0.6701 H   0  0  0  0  0  0  0  0  0  0  0  0
    0.1282    0.9670    0.3734 H   0  0  0  0  0  0  0  0  0  0  0  0
   -0.2500   -0.6436    0.9762 H   0  0  0  0  0  0  0  0  0  0  0  0
    0.5790   -0.0126   -1.9184 H   0  0  0  0  0  0  0  0  0  0  0  0
    0.1470   -1.6057   -1.3139 H   0  0  0  0  0  0  0  0  0  0  0  0
    2.5648   -1.5323   -1.3589 H   0  0  0  0  0  0  0  0  0  0  0  0
    2.0658   -1.4562    0.3527 H   0  0  0  0  0  0  0  0  0  0  0  0
    2.4938    1.0508    0.3639 H   0  0  0  0  0  0  0  0  0  0  0  0
  1  8  1  0  0  0  0
  1 10  1  0  0  0  0
  2  3  1  0  0  0  0
  2  1  1  0  0  0  0
  3 13  1  0  0  0  0
  3 14  1  0  0  0  0
  4  5  1  0  0  0  0
  4  3  1  0  0  0  0
  5  6  1  0  0  0  0
  5 18  1  0  0  0  0
  6 19  1  0  0  0  0
  7  6  2  0  0  0  0
  9  1  1  0  0  0  0
 11  2  1  0  0  0  0
 12  2  1  0  0  0  0
 15  4  1  0  0  0  0
 16  4  1  0  0  0  0
 17  5  1  0  0  0  0
M  END
>  <Charge>
0.0

>  <InChI>
1/C6H12O/c1-2-3-4-5-6-7/h6H,2-5H2,1H3

>  <Molecular Formula>
C_{6}H_{12}O

>  <Name>
HEXANAL

>  <SMILES>
CCCCCC=O

>  <logK (FORMAMIDE)>
2.95

>  <logK (HEXADECANE)>
3.37

>  <logK (OCTANE)>
3.49

>  <mean polarizability>
12.14

>  <dipole moment>
3.09824740947

$$$$
289
 OpenBabel08101817183D

 19 18  0  0  0  0  0  0  0  0999 V2000
   -2.1492    0.9055   -0.2731 C   0  0  0  0  0  0  0  0  0  0  0  0
   -1.0586   -0.0502    0.2198 C   0  0  0  0  0  0  0  0  0  0  0  0
   -1.1802   -1.4220   -0.4519 C   0  0  0  0  0  0  0  0  0  0  0  0
    0.3317    0.5524   -0.0032 C   0  0  0  0  0  0  0  0  0  0  0  0
    1.4686   -0.1280    0.7495 C   0  0  0  0  0  0  0  0  0  0  0  0
    1.2721   -0.8594    1.7049 O   0  0  0  0  0  0  0  0  0  0  0  0
    2.8692    0.1691    0.2520 C   0  0  0  0  0  0  0  0  0  0  0  0
   -2.1006    1.8749    0.2430 H   0  0  0  0  0  0  0  0  0  0  0  0
   -3.1490    0.4834   -0.1015 H   0  0  0  0  0  0  0  0  0  0  0  0
   -2.0521    1.0961   -1.3532 H   0  0  0  0  0  0  0  0  0  0  0  0
   -1.1779   -0.1931    1.3053 H   0  0  0  0  0  0  0  0  0  0  0  0
   -0.4267   -2.1230   -0.0710 H   0  0  0  0  0  0  0  0  0  0  0  0
   -1.0534   -1.3359   -1.5424 H   0  0  0  0  0  0  0  0  0  0  0  0
   -2.1696   -1.8625   -0.2678 H   0  0  0  0  0  0  0  0  0  0  0  0
    0.3495    1.6074    0.3294 H   0  0  0  0  0  0  0  0  0  0  0  0
    0.5800    0.5907   -1.0781 H   0  0  0  0  0  0  0  0  0  0  0  0
    3.6095   -0.1251    1.0027 H   0  0  0  0  0  0  0  0  0  0  0  0
    2.9888    1.2292   -0.0125 H   0  0  0  0  0  0  0  0  0  0  0  0
    3.0477   -0.4094   -0.6682 H   0  0  0  0  0  0  0  0  0  0  0  0
  1  9  1  0  0  0  0
  1  2  1  0  0  0  0
  1  8  1  0  0  0  0
  2 11  1  0  0  0  0
  3 14  1  0  0  0  0
  3 12  1  0  0  0  0
  3  2  1  0  0  0  0
  4  2  1  0  0  0  0
  4 15  1  0  0  0  0
  4  5  1  0  0  0  0
  5  6  2  0  0  0  0
  7  5  1  0  0  0  0
  7 17  1  0  0  0  0
 10  1  1  0  0  0  0
 13  3  1  0  0  0  0
 16  4  1  0  0  0  0
 18  7  1  0  0  0  0
 19  7  1  0  0  0  0
M  END
>  <Charge>
0.0

>  <InChI>
1/C6H12O/c1-5(2)4-6(3)7/h5H,4H2,1-3H3

>  <Molecular Formula>
C_{6}H_{12}O

>  <Name>
4-METHYLPENTAN-2-ONE

>  <SMILES>
CC(C)CC(=O)C

>  <logK (1,4-DIOXANE)>
3.9

>  <logK (1-METHYL-2-PIPERIDINONE)>
3.75

>  <logK (4-FORMYLMORPHOLINE)>
3.38

>  <logK (FORMAMIDE)>
3.07

>  <logK (HEXADECANE)>
3.05

>  <logK (N,N-DIBUTYLFORMAMID)>
3.69

>  <logK (N,N-DIMETHYLACETAMIDE)>
3.84

>  <logK (N-METHYLACETAMIDE)>
3.53

>  <logK (OCTANE)>
3.18

>  <logK (PYRIDINE)>
4.056

>  <logK (SULFOLANE)>
3.421

>  <mean polarizability>
12.06

>  <dipole moment>
2.5942712357

>  <Formula>
C6H12O

$$$$
290
 OpenBabel08101817183D

 21 20  0  0  1  0  0  0  0  0999 V2000
    2.8146   -0.0126    0.9190 C   0  0  0  0  0  0  0  0  0  0  0  0
    1.6754    0.3483   -0.0351 C   0  0  0  0  0  0  0  0  0  0  0  0
    0.3813   -0.4102    0.2721 C   0  0  0  0  0  0  0  0  0  0  0  0
   -0.7723   -0.1506   -0.7106 C   0  0  2  0  0  0  0  0  0  0  0  0
   -1.2475    1.3075   -0.7023 C   0  0  0  0  0  0  0  0  0  0  0  0
   -1.9445   -1.1122   -0.4651 C   0  0  0  0  0  0  0  0  0  0  0  0
   -2.5571   -0.9809    0.8230 O   0  0  0  0  0  0  0  0  0  0  0  0
    2.5484    0.2196    1.9603 H   0  0  0  0  0  0  0  0  0  0  0  0
    3.0488   -1.0859    0.8708 H   0  0  0  0  0  0  0  0  0  0  0  0
    3.7330    0.5404    0.6787 H   0  0  0  0  0  0  0  0  0  0  0  0
    1.9832    0.1352   -1.0727 H   0  0  0  0  0  0  0  0  0  0  0  0
    1.4966    1.4337    0.0126 H   0  0  0  0  0  0  0  0  0  0  0  0
    0.5995   -1.4919    0.2751 H   0  0  0  0  0  0  0  0  0  0  0  0
    0.0442   -0.1702    1.2937 H   0  0  0  0  0  0  0  0  0  0  0  0
   -0.4099   -0.3836   -1.7293 H   0  0  0  0  0  0  0  0  0  0  0  0
   -0.4489    1.9987   -0.9994 H   0  0  0  0  0  0  0  0  0  0  0  0
   -1.5781    1.6134    0.3026 H   0  0  0  0  0  0  0  0  0  0  0  0
   -2.0858    1.4565   -1.3989 H   0  0  0  0  0  0  0  0  0  0  0  0
   -1.5877   -2.1512   -0.5065 H   0  0  0  0  0  0  0  0  0  0  0  0
   -2.6980   -0.9867   -1.2652 H   0  0  0  0  0  0  0  0  0  0  0  0
   -2.9956   -0.1172    0.8576 H   0  0  0  0  0  0  0  0  0  0  0  0
  1  8  1  0  0  0  0
  2 12  1  0  0  0  0
  2  3  1  0  0  0  0
  2  1  1  0  0  0  0
  3 13  1  0  0  0  0
  3 14  1  0  0  0  0
  4 15  1  6  0  0  0
  4  5  1  0  0  0  0
  4  6  1  0  0  0  0
  4  3  1  0  0  0  0
  5 17  1  0  0  0  0
  6  7  1  0  0  0  0
  7 21  1  0  0  0  0
  9  1  1  0  0  0  0
 10  1  1  0  0  0  0
 11  2  1  0  0  0  0
 16  5  1  0  0  0  0
 18  5  1  0  0  0  0
 19  6  1  0  0  0  0
 20  6  1  0  0  0  0
M  END
>  <Charge>
0.0

>  <InChI>
1/C6H14O/c1-3-4-6(2)5-7/h6-7H,3-5H2,1-2H3

>  <Molecular Formula>
C_{6}H_{14}O

>  <Name>
2-METHYLPENTANOL

>  <SMILES>
CCCC(C)CO

>  <logK (CHLOROFORM)>
4.735

>  <logK (DECANE)>
3.532

>  <logK (OCTANE)>
3.585

>  <mean polarizability>
12.51

>  <dipole moment>
1.64017854615

$$$$
291
 OpenBabel08101817183D

 21 20  0  0  1  0  0  0  0  0999 V2000
   -2.2276    1.1373   -0.3342 C   0  0  0  0  0  0  0  0  0  0  0  0
   -0.9103    0.4938   -0.7715 C   0  0  0  0  0  0  0  0  0  0  0  0
   -0.1512   -0.2422    0.3462 C   0  0  1  0  0  0  0  0  0  0  0  0
   -0.9511   -1.4285    0.8962 C   0  0  0  0  0  0  0  0  0  0  0  0
    1.2328   -0.7198   -0.1296 C   0  0  0  0  0  0  0  0  0  0  0  0
    2.2460    0.3794   -0.4433 C   0  0  0  0  0  0  0  0  0  0  0  0
    2.5464    1.2175    0.6795 O   0  0  0  0  0  0  0  0  0  0  0  0
   -2.9677    0.3914   -0.0153 H   0  0  0  0  0  0  0  0  0  0  0  0
   -2.0685    1.8299    0.5052 H   0  0  0  0  0  0  0  0  0  0  0  0
   -2.6762    1.7115   -1.1562 H   0  0  0  0  0  0  0  0  0  0  0  0
   -1.0992   -0.2157   -1.5962 H   0  0  0  0  0  0  0  0  0  0  0  0
   -0.2627    1.2800   -1.1882 H   0  0  0  0  0  0  0  0  0  0  0  0
    0.0120    0.4755    1.1689 H   0  0  0  0  0  0  0  0  0  0  0  0
   -1.9166   -1.1162    1.3150 H   0  0  0  0  0  0  0  0  0  0  0  0
   -0.3970   -1.9423    1.6946 H   0  0  0  0  0  0  0  0  0  0  0  0
   -1.1531   -2.1664    0.1038 H   0  0  0  0  0  0  0  0  0  0  0  0
    1.1149   -1.3503   -1.0289 H   0  0  0  0  0  0  0  0  0  0  0  0
    1.6693   -1.3795    0.6417 H   0  0  0  0  0  0  0  0  0  0  0  0
    3.1689   -0.0749   -0.8472 H   0  0  0  0  0  0  0  0  0  0  0  0
    1.8638    1.0634   -1.2131 H   0  0  0  0  0  0  0  0  0  0  0  0
    2.9270    0.6559    1.3726 H   0  0  0  0  0  0  0  0  0  0  0  0
  1  8  1  0  0  0  0
  1  9  1  0  0  0  0
  2  1  1  0  0  0  0
  2  3  1  0  0  0  0
  3  4  1  0  0  0  0
  3 13  1  1  0  0  0
  4 14  1  0  0  0  0
  4 15  1  0  0  0  0
  5  3  1  0  0  0  0
  5 18  1  0  0  0  0
  6  5  1  0  0  0  0
  6  7  1  0  0  0  0
  7 21  1  0  0  0  0
 10  1  1  0  0  0  0
 11  2  1  0  0  0  0
 12  2  1  0  0  0  0
 16  4  1  0  0  0  0
 17  5  1  0  0  0  0
 19  6  1  0  0  0  0
 20  6  1  0  0  0  0
M  END
>  <Charge>
0.0

>  <InChI>
1/C6H14O/c1-3-6(2)4-5-7/h6-7H,3-5H2,1-2H3

>  <Molecular Formula>
C_{6}H_{14}O

>  <Name>
3-ETHYLBUTANOL

>  <SMILES>
CCC(C)CCO

>  <logK (CHLOROFORM)>
4.845

>  <logK (DECANE)>
3.509

>  <logK (OCTANE)>
3.531

>  <mean polarizability>
12.5

>  <dipole moment>
1.44294092332

$$$$
292
 OpenBabel08101817183D

 21 20  0  0  0  0  0  0  0  0999 V2000
    2.7726    0.0415    0.4723 C   0  0  0  0  0  0  0  0  0  0  0  0
    1.2598    0.1062    0.6917 C   0  0  0  0  0  0  0  0  0  0  0  0
    0.4758   -0.1782   -0.5932 C   0  0  0  0  0  0  0  0  0  0  0  0
   -1.0642   -0.1290   -0.5081 C   0  0  0  0  0  0  0  0  0  0  0  0
   -1.6198   -1.1871    0.4435 C   0  0  0  0  0  0  0  0  0  0  0  0
   -1.5720    1.2672   -0.1297 C   0  0  0  0  0  0  0  0  0  0  0  0
   -1.5997   -0.4924   -1.8048 O   0  0  0  0  0  0  0  0  0  0  0  0
    3.0978    0.7820   -0.2728 H   0  0  0  0  0  0  0  0  0  0  0  0
    3.3238    0.2398    1.4014 H   0  0  0  0  0  0  0  0  0  0  0  0
    3.0787   -0.9493    0.1073 H   0  0  0  0  0  0  0  0  0  0  0  0
    0.9928    1.0994    1.0843 H   0  0  0  0  0  0  0  0  0  0  0  0
    0.9747   -0.6199    1.4685 H   0  0  0  0  0  0  0  0  0  0  0  0
    0.7499   -1.1746   -0.9756 H   0  0  0  0  0  0  0  0  0  0  0  0
    0.7923    0.5464   -1.3660 H   0  0  0  0  0  0  0  0  0  0  0  0
   -1.3218   -0.9862    1.4799 H   0  0  0  0  0  0  0  0  0  0  0  0
   -2.7164   -1.1919    0.3947 H   0  0  0  0  0  0  0  0  0  0  0  0
   -1.2596   -2.1848    0.1602 H   0  0  0  0  0  0  0  0  0  0  0  0
   -1.2561    1.5582    0.8811 H   0  0  0  0  0  0  0  0  0  0  0  0
   -2.6689    1.2869   -0.1668 H   0  0  0  0  0  0  0  0  0  0  0  0
   -1.1904    2.0239   -0.8320 H   0  0  0  0  0  0  0  0  0  0  0  0
   -1.2494    0.1420   -2.4512 H   0  0  0  0  0  0  0  0  0  0  0  0
  1  2  1  0  0  0  0
  1  9  1  0  0  0  0
  2 11  1  0  0  0  0
  2 12  1  0  0  0  0
  3  4  1  0  0  0  0
  3  2  1  0  0  0  0
  4  6  1  0  0  0  0
  4  5  1  0  0  0  0
  5 15  1  0  0  0  0
  6 18  1  0  0  0  0
  7  4  1  0  0  0  0
  8  1  1  0  0  0  0
 10  1  1  0  0  0  0
 13  3  1  0  0  0  0
 14  3  1  0  0  0  0
 16  5  1  0  0  0  0
 17  5  1  0  0  0  0
 19  6  1  0  0  0  0
 20  6  1  0  0  0  0
 21  7  1  0  0  0  0
M  END
>  <Charge>
0.0

>  <InChI>
1/C6H14O/c1-4-5-6(2,3)7/h7H,4-5H2,1-3H3

>  <Molecular Formula>
C_{6}H_{14}O

>  <Name>
2-METHYL-2-PENTANOL

>  <SMILES>
CCCC(C)(C)O

>  <logK (CARBON TETRACHLORIDE)>
3.781

>  <logK (CHLOROFORM)>
4.174

>  <logK (DECANE)>
3.329

>  <logK (HEXADECANE)>
3.181

>  <logK (OCTANE)>
3.364

>  <mean polarizability>
12.55

>  <dipole moment>
1.61576241703

$$$$
293
 OpenBabel08101817183D

 21 20  0  0  1  0  0  0  0  0999 V2000
    2.3232   -0.8740   -0.4022 C   0  0  0  0  0  0  0  0  0  0  0  0
    0.8450   -0.6295   -0.7141 C   0  0  0  0  0  0  0  0  0  0  0  0
    0.1076    0.2441    0.3184 C   0  0  1  0  0  0  0  0  0  0  0  0
    0.7578    1.6250    0.4632 C   0  0  0  0  0  0  0  0  0  0  0  0
   -1.3952    0.3909   -0.0144 C   0  0  1  0  0  0  0  0  0  0  0  0
   -2.1411   -0.9333   -0.1652 C   0  0  0  0  0  0  0  0  0  0  0  0
   -2.0633    1.2197    0.9553 O   0  0  0  0  0  0  0  0  0  0  0  0
    2.9120    0.0517   -0.4254 H   0  0  0  0  0  0  0  0  0  0  0  0
    2.7669   -1.5631   -1.1333 H   0  0  0  0  0  0  0  0  0  0  0  0
    2.4480   -1.3235    0.5939 H   0  0  0  0  0  0  0  0  0  0  0  0
    0.7525   -0.1559   -1.7069 H   0  0  0  0  0  0  0  0  0  0  0  0
    0.3436   -1.6047   -0.7917 H   0  0  0  0  0  0  0  0  0  0  0  0
    0.1649   -0.2737    1.2968 H   0  0  0  0  0  0  0  0  0  0  0  0
    0.7998    2.1352   -0.5118 H   0  0  0  0  0  0  0  0  0  0  0  0
    0.1811    2.2587    1.1467 H   0  0  0  0  0  0  0  0  0  0  0  0
    1.7830    1.5528    0.8470 H   0  0  0  0  0  0  0  0  0  0  0  0
   -1.4841    0.9632   -0.9535 H   0  0  0  0  0  0  0  0  0  0  0  0
   -2.0210   -1.5544    0.7370 H   0  0  0  0  0  0  0  0  0  0  0  0
   -3.2111   -0.7372   -0.3072 H   0  0  0  0  0  0  0  0  0  0  0  0
   -1.7865   -1.5172   -1.0235 H   0  0  0  0  0  0  0  0  0  0  0  0
   -2.0834    0.7252    1.7911 H   0  0  0  0  0  0  0  0  0  0  0  0
  1 10  1  0  0  0  0
  2  1  1  0  0  0  0
  2  3  1  0  0  0  0
  3  4  1  0  0  0  0
  3 13  1  1  0  0  0
  4 16  1  0  0  0  0
  4 15  1  0  0  0  0
  5 17  1  6  0  0  0
  5  3  1  0  0  0  0
  5  7  1  0  0  0  0
  6  5  1  0  0  0  0
  6 18  1  0  0  0  0
  7 21  1  0  0  0  0
  8  1  1  0  0  0  0
  9  1  1  0  0  0  0
 11  2  1  0  0  0  0
 12  2  1  0  0  0  0
 14  4  1  0  0  0  0
 19  6  1  0  0  0  0
 20  6  1  0  0  0  0
M  END
>  <Charge>
0.0

>  <InChI>
1/C6H14O/c1-4-5(2)6(3)7/h5-7H,4H2,1-3H3

>  <Molecular Formula>
C_{6}H_{14}O

>  <Name>
3-METHYL-2-PENTANOL

>  <SMILES>
CCC(C)C(C)O

>  <logK (CHLOROFORM)>
4.762

>  <logK (DECANE)>
3.529

>  <logK (OCTANE)>
3.572

>  <mean polarizability>
12.49

>  <dipole moment>
1.60981733546

$$$$
294
 OpenBabel08101817183D

 21 20  0  0  0  0  0  0  0  0999 V2000
   -2.0318   -0.0674    1.5467 C   0  0  0  0  0  0  0  0  0  0  0  0
   -1.2531   -0.3825    0.2652 C   0  0  0  0  0  0  0  0  0  0  0  0
   -1.9049    0.3053   -0.9397 C   0  0  0  0  0  0  0  0  0  0  0  0
    0.2278   -0.0015    0.4299 C   0  0  0  0  0  0  0  0  0  0  0  0
    1.1390   -0.4456   -0.7170 C   0  0  0  0  0  0  0  0  0  0  0  0
    2.6106   -0.1470   -0.4769 C   0  0  0  0  0  0  0  0  0  0  0  0
    2.7860    1.2763   -0.4238 O   0  0  0  0  0  0  0  0  0  0  0  0
   -2.0098    1.0123    1.7599 H   0  0  0  0  0  0  0  0  0  0  0  0
   -1.6038   -0.5872    2.4156 H   0  0  0  0  0  0  0  0  0  0  0  0
   -3.0857   -0.3672    1.4588 H   0  0  0  0  0  0  0  0  0  0  0  0
   -1.3014   -1.4745    0.1002 H   0  0  0  0  0  0  0  0  0  0  0  0
   -1.4144    0.0410   -1.8858 H   0  0  0  0  0  0  0  0  0  0  0  0
   -2.9640    0.0240   -1.0267 H   0  0  0  0  0  0  0  0  0  0  0  0
   -1.8582    1.4000   -0.8327 H   0  0  0  0  0  0  0  0  0  0  0  0
    0.6021   -0.4478    1.3674 H   0  0  0  0  0  0  0  0  0  0  0  0
    0.3085    1.0899    0.5575 H   0  0  0  0  0  0  0  0  0  0  0  0
    1.0366   -1.5326   -0.8736 H   0  0  0  0  0  0  0  0  0  0  0  0
    0.8415    0.0387   -1.6595 H   0  0  0  0  0  0  0  0  0  0  0  0
    2.9382   -0.6127    0.4719 H   0  0  0  0  0  0  0  0  0  0  0  0
    3.2169   -0.5804   -1.2928 H   0  0  0  0  0  0  0  0  0  0  0  0
    3.7199    1.4592   -0.2447 H   0  0  0  0  0  0  0  0  0  0  0  0
  1  8  1  0  0  0  0
  1  9  1  0  0  0  0
  2  4  1  0  0  0  0
  2  1  1  0  0  0  0
  3 14  1  0  0  0  0
  3  2  1  0  0  0  0
  4 16  1  0  0  0  0
  4 15  1  0  0  0  0
  5  6  1  0  0  0  0
  5  4  1  0  0  0  0
  6  7  1  0  0  0  0
  6 19  1  0  0  0  0
  7 21  1  0  0  0  0
 10  1  1  0  0  0  0
 11  2  1  0  0  0  0
 12  3  1  0  0  0  0
 13  3  1  0  0  0  0
 17  5  1  0  0  0  0
 18  5  1  0  0  0  0
 20  6  1  0  0  0  0
M  END
>  <Charge>
0.0

>  <InChI>
1/C6H14O/c1-6(2)4-3-5-7/h6-7H,3-5H2,1-2H3

>  <Molecular Formula>
C_{6}H_{14}O

>  <Name>
ISOHEXANOL

>  <SMILES>
CC(C)CCCO

>  <logK (CARBON TETRACHLORIDE)>
3.999

>  <logK (CHLOROFORM)>
4.84

>  <logK (DECANE)>
3.501

>  <logK (OCTANE)>
3.547

>  <mean polarizability>
12.59

>  <dipole moment>
1.49456278316

$$$$
295
 OpenBabel08101817183D

 21 20  0  0  1  0  0  0  0  0999 V2000
    2.6602   -0.3348    0.4478 C   0  0  0  0  0  0  0  0  0  0  0  0
    1.1556   -0.5810    0.3340 C   0  0  0  0  0  0  0  0  0  0  0  0
    0.3753    0.6631   -0.1045 C   0  0  2  0  0  0  0  0  0  0  0  0
   -1.1643    0.5368   -0.0204 C   0  0  0  0  0  0  0  0  0  0  0  0
   -1.6541    0.4498    1.4289 C   0  0  0  0  0  0  0  0  0  0  0  0
   -1.7281   -0.6126   -0.8627 C   0  0  0  0  0  0  0  0  0  0  0  0
    0.7871    1.0963   -1.4136 O   0  0  0  0  0  0  0  0  0  0  0  0
    2.8777    0.4217    1.2156 H   0  0  0  0  0  0  0  0  0  0  0  0
    3.1959   -1.2530    0.7230 H   0  0  0  0  0  0  0  0  0  0  0  0
    3.0715    0.0301   -0.5019 H   0  0  0  0  0  0  0  0  0  0  0  0
    0.7628   -0.9318    1.3010 H   0  0  0  0  0  0  0  0  0  0  0  0
    0.9642   -1.3945   -0.3863 H   0  0  0  0  0  0  0  0  0  0  0  0
    0.6677    1.5030    0.5483 H   0  0  0  0  0  0  0  0  0  0  0  0
   -1.5420    1.4809   -0.4468 H   0  0  0  0  0  0  0  0  0  0  0  0
   -2.7502    0.5136    1.4726 H   0  0  0  0  0  0  0  0  0  0  0  0
   -1.3640   -0.4995    1.9019 H   0  0  0  0  0  0  0  0  0  0  0  0
   -1.2480    1.2684    2.0404 H   0  0  0  0  0  0  0  0  0  0  0  0
   -1.3979   -0.5614   -1.9111 H   0  0  0  0  0  0  0  0  0  0  0  0
   -2.8262   -0.5769   -0.8752 H   0  0  0  0  0  0  0  0  0  0  0  0
   -1.4366   -1.5936   -0.4611 H   0  0  0  0  0  0  0  0  0  0  0  0
    0.5936    0.3755   -2.0345 H   0  0  0  0  0  0  0  0  0  0  0  0
  1  9  1  0  0  0  0
  1  8  1  0  0  0  0
  2  1  1  0  0  0  0
  2 11  1  0  0  0  0
  3  4  1  0  0  0  0
  3  2  1  0  0  0  0
  3 13  1  1  0  0  0
  4  5  1  0  0  0  0
  5 15  1  0  0  0  0
  5 16  1  0  0  0  0
  5 17  1  0  0  0  0
  6 20  1  0  0  0  0
  6  4  1  0  0  0  0
  7  3  1  0  0  0  0
 10  1  1  0  0  0  0
 12  2  1  0  0  0  0
 14  4  1  0  0  0  0
 18  6  1  0  0  0  0
 19  6  1  0  0  0  0
 21  7  1  0  0  0  0
M  END
>  <Charge>
0.0

>  <InChI>
1/C6H14O/c1-4-6(7)5(2)3/h5-7H,4H2,1-3H3

>  <Molecular Formula>
C_{6}H_{14}O

>  <Name>
2-METHYL-3-PENTANOL

>  <SMILES>
CCC(C(C)C)O

>  <logK (2,2,4-TRIMETHYLPENTANE)>
3.32

>  <logK (CARBON TETRACHLORIDE)>
3.899

>  <logK (CHLOROFORM)>
4.642

>  <logK (DECANE)>
3.421

>  <logK (OCTANE)>
3.459

>  <dipole moment>
1.6016251665

>  <mean polarizability>
12.42

$$$$
296
 OpenBabel08101817183D

 21 20  0  0  0  0  0  0  0  0999 V2000
    1.2716    1.2797    0.5319 C   0  0  0  0  0  0  0  0  0  0  0  0
    0.8280   -0.1812    0.3947 C   0  0  0  0  0  0  0  0  0  0  0  0
    1.7338   -0.9223   -0.5966 C   0  0  0  0  0  0  0  0  0  0  0  0
   -0.6821   -0.3429    0.0658 C   0  0  0  0  0  0  0  0  0  0  0  0
   -1.0583    0.1851   -1.3240 C   0  0  0  0  0  0  0  0  0  0  0  0
   -1.5575    0.3169    1.1387 C   0  0  0  0  0  0  0  0  0  0  0  0
   -0.9019   -1.7755    0.1097 O   0  0  0  0  0  0  0  0  0  0  0  0
    0.7187    1.8197    1.3110 H   0  0  0  0  0  0  0  0  0  0  0  0
    2.3369    1.3221    0.7973 H   0  0  0  0  0  0  0  0  0  0  0  0
    1.1530    1.8290   -0.4137 H   0  0  0  0  0  0  0  0  0  0  0  0
    0.9481   -0.6665    1.3784 H   0  0  0  0  0  0  0  0  0  0  0  0
    1.7465   -0.4289   -1.5793 H   0  0  0  0  0  0  0  0  0  0  0  0
    2.7680   -0.9314   -0.2256 H   0  0  0  0  0  0  0  0  0  0  0  0
    1.4101   -1.9601   -0.7353 H   0  0  0  0  0  0  0  0  0  0  0  0
   -0.8617    1.2620   -1.4172 H   0  0  0  0  0  0  0  0  0  0  0  0
   -0.5034   -0.3422   -2.1091 H   0  0  0  0  0  0  0  0  0  0  0  0
   -2.1325    0.0320   -1.5066 H   0  0  0  0  0  0  0  0  0  0  0  0
   -1.2741   -0.0382    2.1386 H   0  0  0  0  0  0  0  0  0  0  0  0
   -2.6144    0.0597    0.9711 H   0  0  0  0  0  0  0  0  0  0  0  0
   -1.4823    1.4118    1.1187 H   0  0  0  0  0  0  0  0  0  0  0  0
   -1.8468   -1.9287   -0.0486 H   0  0  0  0  0  0  0  0  0  0  0  0
  1  9  1  0  0  0  0
  1  8  1  0  0  0  0
  2  1  1  0  0  0  0
  2 11  1  0  0  0  0
  3 13  1  0  0  0  0
  3  2  1  0  0  0  0
  4  7  1  0  0  0  0
  4  2  1  0  0  0  0
  4  6  1  0  0  0  0
  5  4  1  0  0  0  0
  6 18  1  0  0  0  0
 10  1  1  0  0  0  0
 12  3  1  0  0  0  0
 14  3  1  0  0  0  0
 15  5  1  0  0  0  0
 16  5  1  0  0  0  0
 17  5  1  0  0  0  0
 19  6  1  0  0  0  0
 20  6  1  0  0  0  0
 21  7  1  0  0  0  0
M  END
>  <Charge>
0.0

>  <InChI>
1/C6H14O/c1-5(2)6(3,4)7/h5,7H,1-4H3

>  <Molecular Formula>
C_{6}H_{14}O

>  <Name>
THEXYL ALCOHOL

>  <SMILES>
CC(C)C(C)(C)O

>  <logK (CARBON TETRACHLORIDE)>
3.779

>  <logK (CHLOROFORM)>
4.475

>  <logK (DECANE)>
3.339

>  <logK (OCTANE)>
3.374

>  <mean polarizability>
12.42

>  <dipole moment>
1.41245504473

$$$$
297
 OpenBabel08101817183D

 21 20  0  0  0  0  0  0  0  0999 V2000
   -1.5321   -0.6409   -1.1539 C   0  0  0  0  0  0  0  0  0  0  0  0
   -0.5645   -0.0679   -0.1031 C   0  0  0  0  0  0  0  0  0  0  0  0
   -0.9316   -0.6419    1.2749 C   0  0  0  0  0  0  0  0  0  0  0  0
   -0.7147    1.4633   -0.0786 C   0  0  0  0  0  0  0  0  0  0  0  0
    0.8687   -0.4952   -0.5101 C   0  0  0  0  0  0  0  0  0  0  0  0
    2.0289   -0.2075    0.4431 C   0  0  0  0  0  0  0  0  0  0  0  0
    2.3422    1.1787    0.6263 O   0  0  0  0  0  0  0  0  0  0  0  0
   -2.5686   -0.3506   -0.9296 H   0  0  0  0  0  0  0  0  0  0  0  0
   -1.4877   -1.7396   -1.1811 H   0  0  0  0  0  0  0  0  0  0  0  0
   -1.2904   -0.2688   -2.1604 H   0  0  0  0  0  0  0  0  0  0  0  0
   -0.8086   -1.7352    1.2979 H   0  0  0  0  0  0  0  0  0  0  0  0
   -1.9810   -0.4193    1.5150 H   0  0  0  0  0  0  0  0  0  0  0  0
   -0.3141   -0.2117    2.0748 H   0  0  0  0  0  0  0  0  0  0  0  0
   -0.4619    1.8986   -1.0573 H   0  0  0  0  0  0  0  0  0  0  0  0
   -0.0605    1.9207    0.6728 H   0  0  0  0  0  0  0  0  0  0  0  0
   -1.7547    1.7410    0.1481 H   0  0  0  0  0  0  0  0  0  0  0  0
    1.1028   -0.0515   -1.4951 H   0  0  0  0  0  0  0  0  0  0  0  0
    0.8638   -1.5873   -0.6734 H   0  0  0  0  0  0  0  0  0  0  0  0
    2.9202   -0.7553    0.0846 H   0  0  0  0  0  0  0  0  0  0  0  0
    1.8101   -0.5853    1.4514 H   0  0  0  0  0  0  0  0  0  0  0  0
    2.5338    1.5556   -0.2464 H   0  0  0  0  0  0  0  0  0  0  0  0
  1  8  1  0  0  0  0
  1  2  1  0  0  0  0
  2  4  1  0  0  0  0
  2  3  1  0  0  0  0
  3 11  1  0  0  0  0
  3 12  1  0  0  0  0
  3 13  1  0  0  0  0
  4 16  1  0  0  0  0
  4 15  1  0  0  0  0
  5  2  1  0  0  0  0
  5  6  1  0  0  0  0
  6  7  1  0  0  0  0
  6 20  1  0  0  0  0
  9  1  1  0  0  0  0
 10  1  1  0  0  0  0
 14  4  1  0  0  0  0
 17  5  1  0  0  0  0
 18  5  1  0  0  0  0
 19  6  1  0  0  0  0
 21  7  1  0  0  0  0
M  END
>  <Charge>
0.0

>  <InChI>
1/C6H14O/c1-6(2,3)4-5-7/h7H,4-5H2,1-3H3

>  <Molecular Formula>
C_{6}H_{14}O

>  <Name>
3,3-DIMETHYL-1-BUTANOL

>  <SMILES>
CC(C)(C)CCO

>  <logK (CARBON TETRACHLORIDE)>
3.993

>  <logK (CHLOROFORM)>
4.793

>  <logK (DECANE)>
3.459

>  <logK (OCTANE)>
3.556

>  <mean polarizability>
12.49

>  <dipole moment>
1.47758200223

$$$$
298
 OpenBabel08101817183D

 24 23  0  0  1  0  0  0  0  0999 V2000
    2.6222    0.9978   -0.3205 C   0  0  0  0  0  0  0  0  0  0  0  0
    1.7295   -0.0746    0.3106 C   0  0  0  0  0  0  0  0  0  0  0  0
    0.6005   -0.5907   -0.6051 C   0  0  0  0  0  0  0  0  0  0  0  0
   -0.7901    0.0721   -0.4807 C   0  0  2  0  0  0  0  0  0  0  0  0
   -0.7552    1.5641   -0.8042 C   0  0  0  0  0  0  0  0  0  0  0  0
   -1.4348   -0.1363    0.9096 C   0  0  0  0  0  0  0  0  0  0  0  0
   -1.6551   -1.5883    1.3327 C   0  0  0  0  0  0  0  0  0  0  0  0
   -1.6474   -0.4949   -1.5017 O   0  0  0  0  0  0  0  0  0  0  0  0
    2.0565    1.8948   -0.6034 H   0  0  0  0  0  0  0  0  0  0  0  0
    3.4159    1.3103    0.3721 H   0  0  0  0  0  0  0  0  0  0  0  0
    3.1071    0.6148   -1.2300 H   0  0  0  0  0  0  0  0  0  0  0  0
    2.3651   -0.9257    0.5983 H   0  0  0  0  0  0  0  0  0  0  0  0
    1.3076    0.3043    1.2545 H   0  0  0  0  0  0  0  0  0  0  0  0
    0.9075   -0.4942   -1.6584 H   0  0  0  0  0  0  0  0  0  0  0  0
    0.4624   -1.6706   -0.4318 H   0  0  0  0  0  0  0  0  0  0  0  0
   -0.3021    1.7362   -1.7889 H   0  0  0  0  0  0  0  0  0  0  0  0
   -0.1849    2.1203   -0.0496 H   0  0  0  0  0  0  0  0  0  0  0  0
   -1.7788    1.9611   -0.8231 H   0  0  0  0  0  0  0  0  0  0  0  0
   -2.4024    0.3874    0.8915 H   0  0  0  0  0  0  0  0  0  0  0  0
   -0.8223    0.3765    1.6672 H   0  0  0  0  0  0  0  0  0  0  0  0
   -2.2803   -2.1338    0.6103 H   0  0  0  0  0  0  0  0  0  0  0  0
   -2.1779   -1.6324    2.2972 H   0  0  0  0  0  0  0  0  0  0  0  0
   -0.7114   -2.1384    1.4494 H   0  0  0  0  0  0  0  0  0  0  0  0
   -1.6319   -1.4598   -1.3962 H   0  0  0  0  0  0  0  0  0  0  0  0
  1  2  1  0  0  0  0
  1 10  1  0  0  0  0
  2 12  1  0  0  0  0
  2 13  1  0  0  0  0
  3 15  1  0  0  0  0
  3  2  1  0  0  0  0
  4  3  1  0  0  0  0
  4  8  1  6  0  0  0
  4  6  1  0  0  0  0
  5  4  1  0  0  0  0
  5 17  1  0  0  0  0
  6  7  1  0  0  0  0
  6 20  1  0  0  0  0
  7 23  1  0  0  0  0
  7 22  1  0  0  0  0
  8 24  1  0  0  0  0
  9  1  1  0  0  0  0
 11  1  1  0  0  0  0
 14  3  1  0  0  0  0
 16  5  1  0  0  0  0
 18  5  1  0  0  0  0
 19  6  1  0  0  0  0
 21  7  1  0  0  0  0
M  END
>  <Charge>
0.0

>  <InChI>
1/C7H16O/c1-4-6-7(3,8)5-2/h8H,4-6H2,1-3H3

>  <Molecular Formula>
C_{7}H_{16}O

>  <Name>
3-METHYL-3-HEXANOL

>  <SMILES>
CCCC(C)(CC)O

>  <logK (CARBON TETRACHLORIDE)>
4.381

>  <logK (CHLOROFORM)>
5.014

>  <logK (DECANE)>
3.912

>  <logK (OCTANE)>
3.958

>  <mean polarizability>
14.23

>  <dipole moment>
1.67770343211

$$$$
299
 OpenBabel08101817183D

 24 23  0  0  1  0  0  0  0  0999 V2000
    3.1321   -0.2076    0.0517 C   0  0  0  0  0  0  0  0  0  0  0  0
    2.0278   -0.3177   -1.0016 C   0  0  0  0  0  0  0  0  0  0  0  0
    0.6800    0.3106   -0.6157 C   0  0  0  0  0  0  0  0  0  0  0  0
   -0.1218   -0.4402    0.4477 C   0  0  2  0  0  0  0  0  0  0  0  0
   -1.6286   -0.0877    0.4846 C   0  0  0  0  0  0  0  0  0  0  0  0
   -1.8899    1.4126    0.6467 C   0  0  0  0  0  0  0  0  0  0  0  0
   -2.3826   -0.6677   -0.7160 C   0  0  0  0  0  0  0  0  0  0  0  0
    0.4951   -0.1679    1.7213 O   0  0  0  0  0  0  0  0  0  0  0  0
    2.8594   -0.7229    0.9799 H   0  0  0  0  0  0  0  0  0  0  0  0
    3.3243    0.8442    0.3088 H   0  0  0  0  0  0  0  0  0  0  0  0
    4.0720   -0.6376   -0.3219 H   0  0  0  0  0  0  0  0  0  0  0  0
    2.3730    0.1644   -1.9300 H   0  0  0  0  0  0  0  0  0  0  0  0
    1.8650   -1.3778   -1.2591 H   0  0  0  0  0  0  0  0  0  0  0  0
    0.8360    1.3435   -0.2666 H   0  0  0  0  0  0  0  0  0  0  0  0
    0.0598    0.3765   -1.5225 H   0  0  0  0  0  0  0  0  0  0  0  0
   -0.0469   -1.5263    0.2346 H   0  0  0  0  0  0  0  0  0  0  0  0
   -2.0194   -0.5956    1.3872 H   0  0  0  0  0  0  0  0  0  0  0  0
   -1.6266    1.9635   -0.2675 H   0  0  0  0  0  0  0  0  0  0  0  0
   -2.9529    1.6024    0.8491 H   0  0  0  0  0  0  0  0  0  0  0  0
   -1.3038    1.8298    1.4758 H   0  0  0  0  0  0  0  0  0  0  0  0
   -3.4644   -0.5105   -0.6083 H   0  0  0  0  0  0  0  0  0  0  0  0
   -2.2086   -1.7483   -0.8202 H   0  0  0  0  0  0  0  0  0  0  0  0
   -2.0758   -0.1862   -1.6557 H   0  0  0  0  0  0  0  0  0  0  0  0
   -0.0031   -0.6537    2.3979 H   0  0  0  0  0  0  0  0  0  0  0  0
  1 10  1  0  0  0  0
  1  9  1  0  0  0  0
  2  3  1  0  0  0  0
  2  1  1  0  0  0  0
  3 14  1  0  0  0  0
  3  4  1  0  0  0  0
  4 16  1  6  0  0  0
  4  5  1  0  0  0  0
  4  8  1  0  0  0  0
  5  6  1  0  0  0  0
  5 17  1  0  0  0  0
  6 19  1  0  0  0  0
  6 20  1  0  0  0  0
  7 21  1  0  0  0  0
  7  5  1  0  0  0  0
  8 24  1  0  0  0  0
 11  1  1  0  0  0  0
 12  2  1  0  0  0  0
 13  2  1  0  0  0  0
 15  3  1  0  0  0  0
 18  6  1  0  0  0  0
 22  7  1  0  0  0  0
 23  7  1  0  0  0  0
M  END
>  <Charge>
0.0

>  <InChI>
1/C7H16O/c1-4-5-7(8)6(2)3/h6-8H,4-5H2,1-3H3

>  <Molecular Formula>
C_{7}H_{16}O

>  <Name>
2-METHYL-3-HEXANOL

>  <SMILES>
CCCC(C(C)C)O

>  <logK (CARBON TETRACHLORIDE)>
4.714

>  <logK (CHLOROFORM)>
5.15

>  <logK (DECANE)>
4.003

>  <logK (OCTANE)>
3.912

>  <mean polarizability>
14.32

>  <dipole moment>
1.55063407889

$$$$
300
 OpenBabel08101817183D

 24 23  0  0  1  0  0  0  0  0999 V2000
    2.9908    0.6852   -0.1081 C   0  0  0  0  0  0  0  0  0  0  0  0
    1.5776    0.2579   -0.5074 C   0  0  0  0  0  0  0  0  0  0  0  0
    0.7670   -0.2608    0.6861 C   0  0  0  0  0  0  0  0  0  0  0  0
   -0.6501   -0.7908    0.3827 C   0  0  2  0  0  0  0  0  0  0  0  0
   -0.6135   -2.0594   -0.4794 C   0  0  0  0  0  0  0  0  0  0  0  0
   -1.5811    0.2685   -0.2313 C   0  0  2  0  0  0  0  0  0  0  0  0
   -1.6788    1.5550    0.5842 C   0  0  0  0  0  0  0  0  0  0  0  0
   -2.8782   -0.3526   -0.3407 O   0  0  0  0  0  0  0  0  0  0  0  0
    3.5513   -0.1563    0.3245 H   0  0  0  0  0  0  0  0  0  0  0  0
    3.5604    1.0564   -0.9708 H   0  0  0  0  0  0  0  0  0  0  0  0
    2.9673    1.4859    0.6455 H   0  0  0  0  0  0  0  0  0  0  0  0
    1.6394   -0.5193   -1.2842 H   0  0  0  0  0  0  0  0  0  0  0  0
    1.0599    1.1116   -0.9731 H   0  0  0  0  0  0  0  0  0  0  0  0
    1.3312   -1.0813    1.1602 H   0  0  0  0  0  0  0  0  0  0  0  0
    0.7089    0.5332    1.4478 H   0  0  0  0  0  0  0  0  0  0  0  0
   -1.1060   -1.0591    1.3522 H   0  0  0  0  0  0  0  0  0  0  0  0
    0.0326   -2.8205   -0.0196 H   0  0  0  0  0  0  0  0  0  0  0  0
   -1.6170   -2.4832   -0.5951 H   0  0  0  0  0  0  0  0  0  0  0  0
   -0.2222   -1.8525   -1.4860 H   0  0  0  0  0  0  0  0  0  0  0  0
   -1.2155    0.5121   -1.2482 H   0  0  0  0  0  0  0  0  0  0  0  0
   -2.4290    2.2300    0.1459 H   0  0  0  0  0  0  0  0  0  0  0  0
   -1.9810    1.3352    1.6177 H   0  0  0  0  0  0  0  0  0  0  0  0
   -0.7256    2.0996    0.6051 H   0  0  0  0  0  0  0  0  0  0  0  0
   -3.4881    0.3052   -0.7080 H   0  0  0  0  0  0  0  0  0  0  0  0
  1  9  1  0  0  0  0
  1 11  1  0  0  0  0
  2  1  1  0  0  0  0
  2  3  1  0  0  0  0
  3 14  1  0  0  0  0
  3 15  1  0  0  0  0
  4  3  1  0  0  0  0
  4 16  1  1  0  0  0
  5 17  1  0  0  0  0
  5  4  1  0  0  0  0
  6 20  1  6  0  0  0
  6  4  1  0  0  0  0
  6  7  1  0  0  0  0
  7 23  1  0  0  0  0
  7 22  1  0  0  0  0
  8  6  1  0  0  0  0
 10  1  1  0  0  0  0
 12  2  1  0  0  0  0
 13  2  1  0  0  0  0
 18  5  1  0  0  0  0
 19  5  1  0  0  0  0
 21  7  1  0  0  0  0
 24  8  1  0  0  0  0
M  END
>  <Charge>
0.0

>  <InChI>
1/C7H16O/c1-4-5-6(2)7(3)8/h6-8H,4-5H2,1-3H3

>  <Molecular Formula>
C_{7}H_{16}O

>  <Name>
3-METHYL-2-HEXANOL

>  <SMILES>
CCCC(C)C(C)O

>  <logK (CARBON TETRACHLORIDE)>
4.347

>  <logK (CHLOROFORM)>
5.204

>  <logK (DECANE)>
3.861

>  <logK (OCTANE)>
3.891

>  <dipole moment>
1.45713718564

>  <mean polarizability>
14.33

$$$$
301
 OpenBabel08101817183D

 24 23  0  0  0  0  0  0  0  0999 V2000
    2.9335    0.7779    0.3703 C   0  0  0  0  0  0  0  0  0  0  0  0
    1.6330    0.9945    1.1464 C   0  0  0  0  0  0  0  0  0  0  0  0
    0.7893   -0.2801    1.3022 C   0  0  0  0  0  0  0  0  0  0  0  0
    0.1153   -0.7795    0.0098 C   0  0  0  0  0  0  0  0  0  0  0  0
   -1.3864   -0.4407   -0.1369 C   0  0  0  0  0  0  0  0  0  0  0  0
   -1.9183   -1.0177   -1.4542 C   0  0  0  0  0  0  0  0  0  0  0  0
   -1.6667    1.0593   -0.0634 C   0  0  0  0  0  0  0  0  0  0  0  0
   -2.1294   -1.0045    0.9711 O   0  0  0  0  0  0  0  0  0  0  0  0
    3.5741    0.0409    0.8766 H   0  0  0  0  0  0  0  0  0  0  0  0
    3.5065    1.7104    0.2771 H   0  0  0  0  0  0  0  0  0  0  0  0
    2.7470    0.4058   -0.6474 H   0  0  0  0  0  0  0  0  0  0  0  0
    1.8750    1.3835    2.1479 H   0  0  0  0  0  0  0  0  0  0  0  0
    1.0367    1.7790    0.6547 H   0  0  0  0  0  0  0  0  0  0  0  0
    0.0105   -0.1259    2.0640 H   0  0  0  0  0  0  0  0  0  0  0  0
    1.4414   -1.0722    1.7032 H   0  0  0  0  0  0  0  0  0  0  0  0
    0.2010   -1.8770   -0.0592 H   0  0  0  0  0  0  0  0  0  0  0  0
    0.6462   -0.3914   -0.8749 H   0  0  0  0  0  0  0  0  0  0  0  0
   -1.4074   -0.5721   -2.3193 H   0  0  0  0  0  0  0  0  0  0  0  0
   -1.7590   -2.1058   -1.4969 H   0  0  0  0  0  0  0  0  0  0  0  0
   -2.9945   -0.8225   -1.5469 H   0  0  0  0  0  0  0  0  0  0  0  0
   -2.7449    1.2400   -0.1624 H   0  0  0  0  0  0  0  0  0  0  0  0
   -1.3425    1.4723    0.8995 H   0  0  0  0  0  0  0  0  0  0  0  0
   -1.1468    1.5938   -0.8690 H   0  0  0  0  0  0  0  0  0  0  0  0
   -2.0137   -1.9682    0.9415 H   0  0  0  0  0  0  0  0  0  0  0  0
  1  9  1  0  0  0  0
  1  2  1  0  0  0  0
  2  3  1  0  0  0  0
  2 12  1  0  0  0  0
  3 15  1  0  0  0  0
  3 14  1  0  0  0  0
  4  3  1  0  0  0  0
  5  7  1  0  0  0  0
  5  4  1  0  0  0  0
  5  8  1  0  0  0  0
  6  5  1  0  0  0  0
  7 22  1  0  0  0  0
 10  1  1  0  0  0  0
 11  1  1  0  0  0  0
 13  2  1  0  0  0  0
 16  4  1  0  0  0  0
 17  4  1  0  0  0  0
 18  6  1  0  0  0  0
 19  6  1  0  0  0  0
 20  6  1  0  0  0  0
 21  7  1  0  0  0  0
 23  7  1  0  0  0  0
 24  8  1  0  0  0  0
M  END
>  <Charge>
0.0

>  <InChI>
1/C7H16O/c1-4-5-6-7(2,3)8/h8H,4-6H2,1-3H3

>  <Molecular Formula>
C_{7}H_{16}O

>  <Name>
2-METHYL-2-HEXANOL

>  <SMILES>
CCCCC(C)(C)O

>  <logK (CARBON TETRACHLORIDE)>
4.266

>  <logK (CHLOROFORM)>
4.906

>  <logK (DECANE)>
3.823

>  <logK (OCTANE)>
3.88

>  <dipole moment>
1.37025837957

>  <mean polarizability>
14.32

$$$$
302
 OpenBabel08101817183D

 24 23  0  0  1  0  0  0  0  0999 V2000
    2.1580   -0.6993    1.3634 C   0  0  0  0  0  0  0  0  0  0  0  0
    1.7989   -0.4335   -0.1030 C   0  0  0  0  0  0  0  0  0  0  0  0
    2.2512    0.9656   -0.5373 C   0  0  0  0  0  0  0  0  0  0  0  0
    0.3080   -0.6931   -0.4079 C   0  0  0  0  0  0  0  0  0  0  0  0
   -0.6915    0.2188    0.3135 C   0  0  0  0  0  0  0  0  0  0  0  0
   -2.1622   -0.1497    0.0811 C   0  0  2  0  0  0  0  0  0  0  0  0
   -2.6181    0.0254   -1.3650 C   0  0  0  0  0  0  0  0  0  0  0  0
   -3.0172    0.5855    0.9760 O   0  0  0  0  0  0  0  0  0  0  0  0
    1.6770    0.0241    2.0371 H   0  0  0  0  0  0  0  0  0  0  0  0
    1.8486   -1.7066    1.6768 H   0  0  0  0  0  0  0  0  0  0  0  0
    3.2428   -0.6181    1.5201 H   0  0  0  0  0  0  0  0  0  0  0  0
    2.3614   -1.1617   -0.7126 H   0  0  0  0  0  0  0  0  0  0  0  0
    1.7771    1.7501    0.0699 H   0  0  0  0  0  0  0  0  0  0  0  0
    2.0031    1.1599   -1.5908 H   0  0  0  0  0  0  0  0  0  0  0  0
    3.3384    1.0781   -0.4232 H   0  0  0  0  0  0  0  0  0  0  0  0
    0.1631   -0.6084   -1.4967 H   0  0  0  0  0  0  0  0  0  0  0  0
    0.0793   -1.7412   -0.1489 H   0  0  0  0  0  0  0  0  0  0  0  0
   -0.5437    1.2674    0.0013 H   0  0  0  0  0  0  0  0  0  0  0  0
   -0.5205    0.1846    1.3995 H   0  0  0  0  0  0  0  0  0  0  0  0
   -2.3125   -1.1998    0.3806 H   0  0  0  0  0  0  0  0  0  0  0  0
   -2.0566   -0.6238   -2.0505 H   0  0  0  0  0  0  0  0  0  0  0  0
   -3.6839   -0.2176   -1.4579 H   0  0  0  0  0  0  0  0  0  0  0  0
   -2.4707    1.0667   -1.6931 H   0  0  0  0  0  0  0  0  0  0  0  0
   -2.9300    1.5265    0.7520 H   0  0  0  0  0  0  0  0  0  0  0  0
  1 11  1  0  0  0  0
  1 10  1  0  0  0  0
  1  9  1  0  0  0  0
  2  1  1  0  0  0  0
  3 15  1  0  0  0  0
  3  2  1  0  0  0  0
  3 13  1  0  0  0  0
  4 17  1  0  0  0  0
  4  2  1  0  0  0  0
  4  5  1  0  0  0  0
  5 19  1  0  0  0  0
  6  5  1  0  0  0  0
  6 20  1  1  0  0  0
  6  8  1  0  0  0  0
  7  6  1  0  0  0  0
 12  2  1  0  0  0  0
 14  3  1  0  0  0  0
 16  4  1  0  0  0  0
 18  5  1  0  0  0  0
 21  7  1  0  0  0  0
 22  7  1  0  0  0  0
 23  7  1  0  0  0  0
 24  8  1  0  0  0  0
M  END
>  <Charge>
0.0

>  <InChI>
1/C7H16O/c1-6(2)4-5-7(3)8/h6-8H,4-5H2,1-3H3

>  <Molecular Formula>
C_{7}H_{16}O

>  <Name>
5-METHYL-2-HEXANOL

>  <SMILES>
CC(C)CCC(C)O

>  <logK (CARBON TETRACHLORIDE)>
4.453

>  <logK (DECANE)>
3.827

>  <logK (OCTANE)>
3.904

>  <dipole moment>
1.74523893963

>  <mean polarizability>
14.4

$$$$
303
 OpenBabel08101817183D

 24 23  0  0  0  0  0  0  0  0999 V2000
   -2.2988   -0.7220    0.1483 C   0  0  0  0  0  0  0  0  0  0  0  0
   -1.3867   -0.2968   -1.0050 C   0  0  0  0  0  0  0  0  0  0  0  0
    0.0789    0.0965   -0.7025 C   0  0  0  0  0  0  0  0  0  0  0  0
    0.2142    1.3781    0.1577 C   0  0  0  0  0  0  0  0  0  0  0  0
    0.0242    1.2647    1.6739 C   0  0  0  0  0  0  0  0  0  0  0  0
    0.8624   -1.0971   -0.1339 C   0  0  0  0  0  0  0  0  0  0  0  0
    2.3664   -0.8708    0.0289 C   0  0  0  0  0  0  0  0  0  0  0  0
    0.7002    0.3671   -1.9872 O   0  0  0  0  0  0  0  0  0  0  0  0
   -1.8609   -1.5353    0.7427 H   0  0  0  0  0  0  0  0  0  0  0  0
   -2.5303    0.1069    0.8285 H   0  0  0  0  0  0  0  0  0  0  0  0
   -3.2551   -1.0892   -0.2489 H   0  0  0  0  0  0  0  0  0  0  0  0
   -1.8517    0.5582   -1.5274 H   0  0  0  0  0  0  0  0  0  0  0  0
   -1.3349   -1.1114   -1.7439 H   0  0  0  0  0  0  0  0  0  0  0  0
    1.2206    1.7757   -0.0398 H   0  0  0  0  0  0  0  0  0  0  0  0
   -0.4901    2.1267   -0.2450 H   0  0  0  0  0  0  0  0  0  0  0  0
   -0.9736    0.9114    1.9572 H   0  0  0  0  0  0  0  0  0  0  0  0
    0.1683    2.2477    2.1430 H   0  0  0  0  0  0  0  0  0  0  0  0
    0.7570    0.5811    2.1229 H   0  0  0  0  0  0  0  0  0  0  0  0
    0.4202   -1.3813    0.8320 H   0  0  0  0  0  0  0  0  0  0  0  0
    0.6954   -1.9471   -0.8138 H   0  0  0  0  0  0  0  0  0  0  0  0
    2.5904   -0.0788    0.7567 H   0  0  0  0  0  0  0  0  0  0  0  0
    2.8553   -1.7883    0.3833 H   0  0  0  0  0  0  0  0  0  0  0  0
    2.8247   -0.5876   -0.9260 H   0  0  0  0  0  0  0  0  0  0  0  0
    0.2038    1.0914   -2.4017 H   0  0  0  0  0  0  0  0  0  0  0  0
  1  9  1  0  0  0  0
  1 10  1  0  0  0  0
  2  3  1  0  0  0  0
  2  1  1  0  0  0  0
  3  6  1  0  0  0  0
  3  4  1  0  0  0  0
  4  5  1  0  0  0  0
  5 16  1  0  0  0  0
  5 18  1  0  0  0  0
  5 17  1  0  0  0  0
  6  7  1  0  0  0  0
  6 19  1  0  0  0  0
  7 22  1  0  0  0  0
  7 21  1  0  0  0  0
  8  3  1  0  0  0  0
 11  1  1  0  0  0  0
 12  2  1  0  0  0  0
 13  2  1  0  0  0  0
 14  4  1  0  0  0  0
 15  4  1  0  0  0  0
 20  6  1  0  0  0  0
 23  7  1  0  0  0  0
 24  8  1  0  0  0  0
M  END
>  <Charge>
0.0

>  <InChI>
1/C7H16O/c1-4-7(8,5-2)6-3/h8H,4-6H2,1-3H3

>  <Molecular Formula>
C_{7}H_{16}O

>  <Name>
3-ETHYL-3-PENTANOL

>  <SMILES>
CCC(CC)(CC)O

>  <logK (CARBON TETRACHLORIDE)>
4.413

>  <logK (CHLOROFORM)>
5.177

>  <logK (DECANE)>
3.912

>  <logK (OCTANE)>
3.972

>  <dipole moment>
1.50322469005

>  <mean polarizability>
14.15

$$$$
304
 OpenBabel08101817183D

 24 23  0  0  1  0  0  0  0  0999 V2000
    2.6890   -1.1660    0.2459 C   0  0  0  0  0  0  0  0  0  0  0  0
    1.5898   -0.3095   -0.3830 C   0  0  1  0  0  0  0  0  0  0  0  0
    0.2927   -0.3832    0.4341 C   0  0  0  0  0  0  0  0  0  0  0  0
   -1.0103    0.2221   -0.1493 C   0  0  0  0  0  0  0  0  0  0  0  0
   -2.1597   -0.1733    0.7958 C   0  0  0  0  0  0  0  0  0  0  0  0
   -1.2997   -0.3508   -1.5465 C   0  0  0  0  0  0  0  0  0  0  0  0
   -0.9483    1.7575   -0.2274 C   0  0  0  0  0  0  0  0  0  0  0  0
    2.0549    1.0374   -0.5877 O   0  0  0  0  0  0  0  0  0  0  0  0
    2.8934   -0.8414    1.2785 H   0  0  0  0  0  0  0  0  0  0  0  0
    3.6169   -1.0765   -0.3327 H   0  0  0  0  0  0  0  0  0  0  0  0
    2.4002   -2.2259    0.2801 H   0  0  0  0  0  0  0  0  0  0  0  0
    1.4018   -0.6764   -1.4033 H   0  0  0  0  0  0  0  0  0  0  0  0
    0.1008   -1.4511    0.6353 H   0  0  0  0  0  0  0  0  0  0  0  0
    0.4838    0.0748    1.4227 H   0  0  0  0  0  0  0  0  0  0  0  0
   -1.9801    0.1981    1.8155 H   0  0  0  0  0  0  0  0  0  0  0  0
   -2.2751   -1.2658    0.8506 H   0  0  0  0  0  0  0  0  0  0  0  0
   -3.1132    0.2499    0.4484 H   0  0  0  0  0  0  0  0  0  0  0  0
   -2.2777   -0.0020   -1.9075 H   0  0  0  0  0  0  0  0  0  0  0  0
   -1.3230   -1.4509   -1.5309 H   0  0  0  0  0  0  0  0  0  0  0  0
   -0.5471   -0.0349   -2.2816 H   0  0  0  0  0  0  0  0  0  0  0  0
   -0.7536    2.1939    0.7640 H   0  0  0  0  0  0  0  0  0  0  0  0
   -1.9092    2.1584   -0.5822 H   0  0  0  0  0  0  0  0  0  0  0  0
   -0.1572    2.0955   -0.9061 H   0  0  0  0  0  0  0  0  0  0  0  0
    2.2308    1.4199    0.2877 H   0  0  0  0  0  0  0  0  0  0  0  0
  1 11  1  0  0  0  0
  1  9  1  0  0  0  0
  2 12  1  6  0  0  0
  2  1  1  0  0  0  0
  2  3  1  0  0  0  0
  3 13  1  0  0  0  0
  3 14  1  0  0  0  0
  4  3  1  0  0  0  0
  4  5  1  0  0  0  0
  5 16  1  0  0  0  0
  5 15  1  0  0  0  0
  6 19  1  0  0  0  0
  6  4  1  0  0  0  0
  7  4  1  0  0  0  0
  7 21  1  0  0  0  0
  8  2  1  0  0  0  0
  8 24  1  0  0  0  0
 10  1  1  0  0  0  0
 17  5  1  0  0  0  0
 18  6  1  0  0  0  0
 20  6  1  0  0  0  0
 22  7  1  0  0  0  0
 23  7  1  0  0  0  0
M  END
>  <Charge>
0.0

>  <InChI>
1/C7H16O/c1-6(8)5-7(2,3)4/h6,8H,5H2,1-4H3

>  <Molecular Formula>
C_{7}H_{16}O

>  <Name>
4,4-DIMETHYL-2-PENTANOL

>  <SMILES>
CC(CC(C)(C)C)O

>  <logK (CARBON TETRACHLORIDE)>
4.383

>  <logK (CHLOROFORM)>
5.172

>  <logK (DECANE)>
3.909

>  <logK (OCTANE)>
3.968

>  <dipole moment>
1.42157727272

>  <mean polarizability>
14.44

$$$$
305
 OpenBabel08101817183D

 24 23  0  0  1  0  0  0  0  0999 V2000
   -2.1484   -1.2730    0.0445 C   0  0  0  0  0  0  0  0  0  0  0  0
   -1.5702    0.0557    0.5346 C   0  0  0  0  0  0  0  0  0  0  0  0
   -0.3422    0.5906   -0.2391 C   0  0  1  0  0  0  0  0  0  0  0  0
    0.0658    1.9418    0.3471 C   0  0  0  0  0  0  0  0  0  0  0  0
    0.8357   -0.4320   -0.2711 C   0  0  0  0  0  0  0  0  0  0  0  0
    1.2729   -0.9195    1.1165 C   0  0  0  0  0  0  0  0  0  0  0  0
    2.0463    0.0871   -1.0577 C   0  0  0  0  0  0  0  0  0  0  0  0
   -0.7361    0.8917   -1.6003 O   0  0  0  0  0  0  0  0  0  0  0  0
   -3.0610   -1.5221    0.6019 H   0  0  0  0  0  0  0  0  0  0  0  0
   -2.4338   -1.2324   -1.0178 H   0  0  0  0  0  0  0  0  0  0  0  0
   -1.4486   -2.1098    0.1727 H   0  0  0  0  0  0  0  0  0  0  0  0
   -1.3155   -0.0260    1.6020 H   0  0  0  0  0  0  0  0  0  0  0  0
   -2.3446    0.8343    0.4623 H   0  0  0  0  0  0  0  0  0  0  0  0
    0.8642    2.4031   -0.2458 H   0  0  0  0  0  0  0  0  0  0  0  0
   -0.7958    2.6218    0.3391 H   0  0  0  0  0  0  0  0  0  0  0  0
    0.4114    1.8377    1.3833 H   0  0  0  0  0  0  0  0  0  0  0  0
    0.4467   -1.3096   -0.8193 H   0  0  0  0  0  0  0  0  0  0  0  0
    0.4606   -1.4077    1.6700 H   0  0  0  0  0  0  0  0  0  0  0  0
    1.6502   -0.0896    1.7312 H   0  0  0  0  0  0  0  0  0  0  0  0
    2.0901   -1.6479    1.0201 H   0  0  0  0  0  0  0  0  0  0  0  0
    2.5844    0.8661   -0.4993 H   0  0  0  0  0  0  0  0  0  0  0  0
    2.7574   -0.7300   -1.2426 H   0  0  0  0  0  0  0  0  0  0  0  0
    1.7455    0.5071   -2.0251 H   0  0  0  0  0  0  0  0  0  0  0  0
   -1.0349    0.0622   -2.0071 H   0  0  0  0  0  0  0  0  0  0  0  0
  1 11  1  0  0  0  0
  1  2  1  0  0  0  0
  1  9  1  0  0  0  0
  2 12  1  0  0  0  0
  3  8  1  6  0  0  0
  3  4  1  0  0  0  0
  3  2  1  0  0  0  0
  4 16  1  0  0  0  0
  5  3  1  0  0  0  0
  5  6  1  0  0  0  0
  6 18  1  0  0  0  0
  6 19  1  0  0  0  0
  7 21  1  0  0  0  0
  7  5  1  0  0  0  0
 10  1  1  0  0  0  0
 13  2  1  0  0  0  0
 14  4  1  0  0  0  0
 15  4  1  0  0  0  0
 17  5  1  0  0  0  0
 20  6  1  0  0  0  0
 22  7  1  0  0  0  0
 23  7  1  0  0  0  0
 24  8  1  0  0  0  0
M  END
>  <Charge>
0.0

>  <InChI>
1/C7H16O/c1-5-7(4,8)6(2)3/h6,8H,5H2,1-4H3

>  <Molecular Formula>
C_{7}H_{16}O

>  <Name>
2,3-DIMETHYL-3-PENTANOL

>  <SMILES>
CCC(C)(C(C)C)O

>  <logK (CARBON TETRACHLORIDE)>
4.366

>  <logK (CHLOROFORM)>
5.032

>  <logK (DECANE)>
3.912

>  <logK (OCTANE)>
3.959

>  <dipole moment>
1.59008481349

>  <mean polarizability>
14.14

$$$$
306
 OpenBabel08101817183D

 24 23  0  0  1  0  0  0  0  0999 V2000
    2.3001   -0.6025    0.7410 C   0  0  0  0  0  0  0  0  0  0  0  0
    1.7356   -0.1004   -0.5891 C   0  0  0  0  0  0  0  0  0  0  0  0
    0.2517   -0.3798   -0.8943 C   0  0  2  0  0  0  0  0  0  0  0  0
   -0.8372    0.2739    0.0046 C   0  0  0  0  0  0  0  0  0  0  0  0
   -2.1856    0.1407   -0.7313 C   0  0  0  0  0  0  0  0  0  0  0  0
   -0.9706   -0.4090    1.3775 C   0  0  0  0  0  0  0  0  0  0  0  0
   -0.5239    1.7662    0.1907 C   0  0  0  0  0  0  0  0  0  0  0  0
   -0.0105   -1.7954   -0.9170 O   0  0  0  0  0  0  0  0  0  0  0  0
    1.9977   -1.6400    0.9341 H   0  0  0  0  0  0  0  0  0  0  0  0
    3.3979   -0.5681    0.7276 H   0  0  0  0  0  0  0  0  0  0  0  0
    1.9674    0.0080    1.5894 H   0  0  0  0  0  0  0  0  0  0  0  0
    2.3042   -0.5693   -1.4118 H   0  0  0  0  0  0  0  0  0  0  0  0
    1.9185    0.9795   -0.6986 H   0  0  0  0  0  0  0  0  0  0  0  0
    0.0747    0.0319   -1.9087 H   0  0  0  0  0  0  0  0  0  0  0  0
   -2.1596    0.6574   -1.7022 H   0  0  0  0  0  0  0  0  0  0  0  0
   -2.4325   -0.9129   -0.9112 H   0  0  0  0  0  0  0  0  0  0  0  0
   -2.9932    0.5871   -0.1340 H   0  0  0  0  0  0  0  0  0  0  0  0
   -0.0855   -0.2615    2.0069 H   0  0  0  0  0  0  0  0  0  0  0  0
   -1.8324    0.0134    1.9143 H   0  0  0  0  0  0  0  0  0  0  0  0
   -1.1341   -1.4875    1.2655 H   0  0  0  0  0  0  0  0  0  0  0  0
   -0.3928    2.2740   -0.7768 H   0  0  0  0  0  0  0  0  0  0  0  0
   -1.3535    2.2615    0.7143 H   0  0  0  0  0  0  0  0  0  0  0  0
    0.3855    1.9261    0.7857 H   0  0  0  0  0  0  0  0  0  0  0  0
    0.5782   -2.1932   -1.5765 H   0  0  0  0  0  0  0  0  0  0  0  0
  1  9  1  0  0  0  0
  1 11  1  0  0  0  0
  2  1  1  0  0  0  0
  3 14  1  6  0  0  0
  3  2  1  0  0  0  0
  3  4  1  0  0  0  0
  4  7  1  0  0  0  0
  4  6  1  0  0  0  0
  5 17  1  0  0  0  0
  5  4  1  0  0  0  0
  6 19  1  0  0  0  0
  6 18  1  0  0  0  0
  7 22  1  0  0  0  0
  7 23  1  0  0  0  0
  8  3  1  0  0  0  0
 10  1  1  0  0  0  0
 12  2  1  0  0  0  0
 13  2  1  0  0  0  0
 15  5  1  0  0  0  0
 16  5  1  0  0  0  0
 20  6  1  0  0  0  0
 21  7  1  0  0  0  0
 24  8  1  0  0  0  0
M  END
>  <Charge>
0.0

>  <InChI>
1/C7H16O/c1-5-6(8)7(2,3)4/h6,8H,5H2,1-4H3

>  <Molecular Formula>
C_{7}H_{16}O

>  <Name>
2,2-DIMETHYL-3-PENTANOL

>  <SMILES>
CCC(C(C)(C)C)O

>  <logK (CARBON TETRACHLORIDE)>
4.002

>  <logK (CHLOROFORM)>
4.877

>  <logK (DECANE)>
3.553

>  <logK (OCTANE)>
3.617

>  <dipole moment>
1.44732337742

>  <mean polarizability>
14.2

$$$$
307
 OpenBabel08101817183D

 11 11  0  0  0  0  0  0  0  0999 V2000
   -1.5513    0.5161    0.0159 C   0  0  0  0  0  0  0  0  0  0  0  0
   -0.2258    1.0099    0.1190 C   0  0  0  0  0  0  0  0  0  0  0  0
    0.6109   -0.0793    0.0092 C   0  0  0  0  0  0  0  0  0  0  0  0
   -0.1426   -1.2247   -0.1575 O   0  0  0  0  0  0  0  0  0  0  0  0
   -1.4410   -0.8420   -0.1503 C   0  0  0  0  0  0  0  0  0  0  0  0
    2.0538   -0.2428    0.0340 C   0  0  0  0  0  0  0  0  0  0  0  0
    2.8430    0.6803    0.1741 O   0  0  0  0  0  0  0  0  0  0  0  0
   -2.4742    1.0836    0.0579 H   0  0  0  0  0  0  0  0  0  0  0  0
    0.0997    2.0346    0.2573 H   0  0  0  0  0  0  0  0  0  0  0  0
   -2.1686   -1.6361   -0.2722 H   0  0  0  0  0  0  0  0  0  0  0  0
    2.3961   -1.2996   -0.0873 H   0  0  0  0  0  0  0  0  0  0  0  0
  1  8  1  0  0  0  0
  1  2  1  0  0  0  0
  2  9  1  0  0  0  0
  3  6  1  0  0  0  0
  3  2  2  0  0  0  0
  4  5  1  0  0  0  0
  4  3  1  0  0  0  0
  5  1  2  0  0  0  0
  6  7  2  0  0  0  0
 10  5  1  0  0  0  0
 11  6  1  0  0  0  0
M  END
>  <Charge>
0.0

>  <InChI>
1/C5H4O2/c6-4-5-2-1-3-7-5/h1-4H

>  <Molecular Formula>
C_{5}H_{4}O_{2}

>  <Name>
FURFURAL

>  <SMILES>
c1cc(oc1)C=O

>  <logK (CARBON TETRACHLORIDE)>
4.06

>  <logK (DECANE)>
3.307

>  <logK (ETHYL ACETATE)>
4.62

>  <logK (ETHYLBENZENE)>
4.292

>  <logK (IODOBENZENE)>
4.52

>  <logK (OCTANE)>
3.13

>  <mean polarizability>
10.16

>  <dipole moment>
3.8013179225

$$$$
308
 OpenBabel08101817183D

 14 14  0  0  0  0  0  0  0  0999 V2000
   -2.2067    0.8301    0.3688 C   0  0  0  0  0  0  0  0  0  0  0  0
   -0.9235    0.1071    0.2047 C   0  0  0  0  0  0  0  0  0  0  0  0
   -0.6116   -1.2121   -0.0393 C   0  0  0  0  0  0  0  0  0  0  0  0
    0.8028   -1.2875   -0.0915 C   0  0  0  0  0  0  0  0  0  0  0  0
    1.2759   -0.0096    0.1235 C   0  0  0  0  0  0  0  0  0  0  0  0
    0.2148    0.8464    0.3054 O   0  0  0  0  0  0  0  0  0  0  0  0
    2.6318    0.4972    0.1766 C   0  0  0  0  0  0  0  0  0  0  0  0
    2.9596    1.6579    0.3752 O   0  0  0  0  0  0  0  0  0  0  0  0
   -3.0459    0.1340    0.2673 H   0  0  0  0  0  0  0  0  0  0  0  0
   -2.2667    1.3099    1.3560 H   0  0  0  0  0  0  0  0  0  0  0  0
   -2.3142    1.6213   -0.3867 H   0  0  0  0  0  0  0  0  0  0  0  0
   -1.3233   -2.0206   -0.1642 H   0  0  0  0  0  0  0  0  0  0  0  0
    1.4152   -2.1662   -0.2651 H   0  0  0  0  0  0  0  0  0  0  0  0
    3.3916   -0.3079    0.0126 H   0  0  0  0  0  0  0  0  0  0  0  0
  1 10  1  0  0  0  0
  2  6  1  0  0  0  0
  2  1  1  0  0  0  0
  3  2  2  0  0  0  0
  4  3  1  0  0  0  0
  4  5  2  0  0  0  0
  5  7  1  0  0  0  0
  5  6  1  0  0  0  0
  7  8  2  0  0  0  0
  9  1  1  0  0  0  0
 11  1  1  0  0  0  0
 12  3  1  0  0  0  0
 13  4  1  0  0  0  0
 14  7  1  0  0  0  0
M  END
>  <Charge>
0.0

>  <InChI>
1/C6H6O2/c1-5-2-3-6(4-7)8-5/h2-4H,1H3

>  <Molecular Formula>
C_{6}H_{6}O_{2}

>  <Name>
5-METHYL-2-FURALDEHYDE

>  <SMILES>
Cc1ccc(o1)C=O

>  <logK (CARBON TETRACHLORIDE)>
4.69

>  <logK (DECANE)>
3.875

>  <logK (ETHYLBENZENE)>
4.944

>  <logK (IODOBENZENE)>
5.12

>  <logK (OCTANE)>
3.632

>  <mean polarizability>
12.52

>  <dipole moment>
4.68878779469

$$$$
309
 OpenBabel08101817183D

  8  7  0  0  0  0  0  0  0  0999 V2000
    0.7653   -0.0483   -0.0907 C   0  0  0  0  0  0  0  0  0  0  0  0
   -0.7673    0.0105   -0.0856 C   0  0  0  0  0  0  0  0  0  0  0  0
   -1.4229    1.1007    1.1496 Cl  0  0  0  0  0  0  0  0  0  0  0  0
   -1.4217   -1.6470    0.0809 Cl  0  0  0  0  0  0  0  0  0  0  0  0
    1.4532   -0.5407    1.4676 Cl  0  0  0  0  0  0  0  0  0  0  0  0
    1.4154    1.5292   -0.6315 Cl  0  0  0  0  0  0  0  0  0  0  0  0
    1.0825   -0.7881   -0.8324 H   0  0  0  0  0  0  0  0  0  0  0  0
   -1.1043    0.3836   -1.0579 H   0  0  0  0  0  0  0  0  0  0  0  0
  1  2  1  0  0  0  0
  1  5  1  0  0  0  0
  2  4  1  0  0  0  0
  2  3  1  0  0  0  0
  6  1  1  0  0  0  0
  7  1  1  0  0  0  0
  8  2  1  0  0  0  0
M  END
>  <Charge>
0.0

>  <InChI>
1/C2H2Cl4/c3-1(4)2(5)6/h1-2H

>  <Molecular Formula>
C_{2}H_{2}Cl_{4}

>  <Name>
1,1,2,2-TETRACHLOROETHANE

>  <SMILES>
C(C(Cl)Cl)(Cl)Cl

>  <logK (ACETONE)>
4.6

>  <logK (CARBON TETRACHLORIDE)>
4.347

>  <logK (DICHLOROETHANE)>
4.67

>  <logK (HEXADECANE)>
3.826

>  <logK (UNDECANE)>
3.72

>  <mean polarizability>
12.4

>  <dipole moment>
1.54497782599

$$$$
310
 OpenBabel08101817183D

  6  5  0  0  0  0  0  0  0  0999 V2000
   -0.5603   -0.3587   -0.0072 C   0  0  0  0  0  0  0  0  0  0  0  0
    0.5603    0.3586   -0.0897 C   0  0  0  0  0  0  0  0  0  0  0  0
    2.0866   -0.3818   -0.4166 Cl  0  0  0  0  0  0  0  0  0  0  0  0
   -2.0866    0.3818    0.3197 Cl  0  0  0  0  0  0  0  0  0  0  0  0
   -0.5978   -1.4377   -0.1376 H   0  0  0  0  0  0  0  0  0  0  0  0
    0.5978    1.4377    0.0406 H   0  0  0  0  0  0  0  0  0  0  0  0
  1  4  1  0  0  0  0
  2  1  2  0  0  0  0
  2  6  1  0  0  0  0
  3  2  1  0  0  0  0
  5  1  1  0  0  0  0
M  END
>  <Charge>
0.0

>  <InChI>
1/C2H2Cl2/c3-1-2-4/h1-2H/b2-1+

>  <Molecular Formula>
C_{2}H_{2}Cl_{2}

>  <Name>
(E)-1,2-DICHLOROETHENE

>  <SMILES>
C(=C/Cl)\Cl

>  <logK (DICHLOROETHANE)>
2.72

>  <logK (HEXADECANE)>
2.35

>  <logK (METHYL ACETATE)>
2.915

>  <logK (UNDECANE)>
2.52

>  <mean polarizability>
8.43

>  <dipole moment>
0.00019609292458

$$$$
311
 OpenBabel08101817183D

  5  4  0  0  0  0  0  0  0  0999 V2000
    0.0014   -0.0016    0.1236 C   0  0  0  0  0  0  0  0  0  0  0  0
   -1.2723   -1.3559   -0.4478 Br  0  0  0  0  0  0  0  0  0  0  0  0
   -0.5505    1.7836   -0.4166 Br  0  0  0  0  0  0  0  0  0  0  0  0
    1.8075   -0.4109   -0.4712 Br  0  0  0  0  0  0  0  0  0  0  0  0
    0.0139   -0.0152    1.2119 H   0  0  0  0  0  0  0  0  0  0  0  0
  1  5  1  0  0  0  0
  2  1  1  0  0  0  0
  3  1  1  0  0  0  0
  4  1  1  0  0  0  0
M  END
>  <Charge>
0.0

>  <InChI>
1/CHBr3/c2-1(3)4/h1H

>  <Molecular Formula>
CHBr_{3}

>  <Name>
BROMOFORM

>  <SMILES>
C(Br)(Br)Br

>  <logK (HEXADECANE)>
3.747

>  <logK (UNDECANE)>
3.53

>  <mean polarizability>
10.71

>  <dipole moment>
0.844135158259

$$$$
312
 OpenBabel08101817183D

 15 14  0  0  0  0  0  0  0  0999 V2000
   -0.9132    0.1841    0.2995 C   0  0  0  0  0  0  0  0  0  0  0  0
   -2.3280    0.0654   -0.2411 C   0  0  0  0  0  0  0  0  0  0  0  0
   -3.4226    1.1565    0.6735 Cl  0  0  0  0  0  0  0  0  0  0  0  0
   -0.1062   -0.6905   -0.4805 O   0  0  0  0  0  0  0  0  0  0  0  0
    1.2057   -0.8766    0.0208 C   0  0  0  0  0  0  0  0  0  0  0  0
    2.1152    0.3411   -0.0563 C   0  0  0  0  0  0  0  0  0  0  0  0
    2.3784    0.8940   -1.7470 Cl  0  0  0  0  0  0  0  0  0  0  0  0
   -0.5761    1.2320    0.2210 H   0  0  0  0  0  0  0  0  0  0  0  0
   -0.8879   -0.1070    1.3662 H   0  0  0  0  0  0  0  0  0  0  0  0
   -2.3721    0.3607   -1.2944 H   0  0  0  0  0  0  0  0  0  0  0  0
   -2.7104   -0.9543   -0.1304 H   0  0  0  0  0  0  0  0  0  0  0  0
    1.1713   -1.1940    1.0837 H   0  0  0  0  0  0  0  0  0  0  0  0
    1.6340   -1.6971   -0.5695 H   0  0  0  0  0  0  0  0  0  0  0  0
    3.0984    0.0881    0.3586 H   0  0  0  0  0  0  0  0  0  0  0  0
    1.7133    1.1978    0.4961 H   0  0  0  0  0  0  0  0  0  0  0  0
  1  9  1  0  0  0  0
  2 11  1  0  0  0  0
  2  1  1  0  0  0  0
  2  3  1  0  0  0  0
  4  5  1  0  0  0  0
  4  1  1  0  0  0  0
  5 12  1  0  0  0  0
  6  5  1  0  0  0  0
  6 14  1  0  0  0  0
  6 15  1  0  0  0  0
  7  6  1  0  0  0  0
  8  1  1  0  0  0  0
 10  2  1  0  0  0  0
 13  5  1  0  0  0  0
M  END
>  <Charge>
0.0

>  <InChI>
1/C4H8Cl2O/c5-1-3-7-4-2-6/h1-4H2

>  <Molecular Formula>
C_{4}H_{8}Cl_{2}O

>  <Name>
BIS(CHLOROETHYL) ETHER

>  <SMILES>
C(CCl)OCCCl

>  <logK (UNDECANE)>
4.23

>  <mean polarizability>
12.95

>  <dipole moment>
2.42477627279

$$$$
313
 OpenBabel08101817183D

 17 16  0  0  0  0  0  0  0  0999 V2000
   -1.8468   -0.8159   -0.5019 C   0  0  0  0  0  0  0  0  0  0  0  0
   -3.1175   -0.2406    0.0824 C   0  0  0  0  0  0  0  0  0  0  0  0
   -3.0608    1.5513    0.2408 Cl  0  0  0  0  0  0  0  0  0  0  0  0
   -0.8280   -0.7121    0.5032 O   0  0  0  0  0  0  0  0  0  0  0  0
    0.4193   -1.1547   -0.0727 O   0  0  0  0  0  0  0  0  0  0  0  0
    0.9770   -0.0496   -0.8407 O   0  0  0  0  0  0  0  0  0  0  0  0
    1.6788    0.8324    0.0447 C   0  0  0  0  0  0  0  0  0  0  0  0
    3.1441    0.4860    0.2238 C   0  0  0  0  0  0  0  0  0  0  0  0
    3.4272   -0.9554    1.2588 Cl  0  0  0  0  0  0  0  0  0  0  0  0
   -2.0118   -1.8776   -0.7535 H   0  0  0  0  0  0  0  0  0  0  0  0
   -1.5397   -0.2651   -1.4023 H   0  0  0  0  0  0  0  0  0  0  0  0
   -3.9620   -0.4773   -0.5741 H   0  0  0  0  0  0  0  0  0  0  0  0
   -3.3129   -0.6429    1.0828 H   0  0  0  0  0  0  0  0  0  0  0  0
    1.6163    1.8142   -0.4547 H   0  0  0  0  0  0  0  0  0  0  0  0
    1.1419    0.9009    1.0008 H   0  0  0  0  0  0  0  0  0  0  0  0
    3.6616    1.3260    0.7037 H   0  0  0  0  0  0  0  0  0  0  0  0
    3.6132    0.2804   -0.7451 H   0  0  0  0  0  0  0  0  0  0  0  0
  1  2  1  0  0  0  0
  1  4  1  0  0  0  0
  2  3  1  0  0  0  0
  2 13  1  0  0  0  0
  5  4  1  0  0  0  0
  6  5  1  0  0  0  0
  6  7  1  0  0  0  0
  7  8  1  0  0  0  0
  7 15  1  0  0  0  0
  8 16  1  0  0  0  0
  8  9  1  0  0  0  0
 10  1  1  0  0  0  0
 11  1  1  0  0  0  0
 12  2  1  0  0  0  0
 14  7  1  0  0  0  0
 17  8  1  0  0  0  0
M  END
>  <Charge>
0.0

>  <InChI>
1/C4H8Cl2O3/c5-1-3-7-9-8-4-2-6/h1-4H2

>  <Molecular Formula>
C_{4}H_{8}Cl_{2}O_{3}

>  <Name>
BIS(2-CHLOROETHYL)TRIOXIDANE

>  <SMILES>
C(CCl)OOOCCCl

>  <logK (UNDECANE)>
6.31

>  <dipole moment>
1.7469121412

>  <mean polarizability>
15.14

$$$$
314
 OpenBabel08101817183D

  7  6  0  0  0  0  0  0  0  0999 V2000
   -1.0336    0.2261    0.0729 C   0  0  0  0  0  0  0  0  0  0  0  0
    0.1181   -0.4599    0.0689 C   0  0  0  0  0  0  0  0  0  0  0  0
    1.3852    0.1421   -0.1770 C   0  0  0  0  0  0  0  0  0  0  0  0
    2.4347    0.6085   -0.3749 N   0  0  0  0  0  0  0  0  0  0  0  0
   -1.9776   -0.2800    0.2665 H   0  0  0  0  0  0  0  0  0  0  0  0
   -1.0607    1.2982   -0.1154 H   0  0  0  0  0  0  0  0  0  0  0  0
    0.1340   -1.5348    0.2591 H   0  0  0  0  0  0  0  0  0  0  0  0
  1  5  1  0  0  0  0
  2  1  2  0  0  0  0
  2  7  1  0  0  0  0
  3  2  1  0  0  0  0
  4  3  3  0  0  0  0
  6  1  1  0  0  0  0
M  END
>  <Charge>
0.0

>  <InChI>
1/C3H3N/c1-2-3-4/h2H,1H2

>  <Molecular Formula>
C_{3}H_{3}N

>  <Name>
ACRYLONITRILE

>  <SMILES>
C=CC#N

>  <logK (UNDECANE)>
1.43

>  <mean polarizability>
6.32

>  <dipole moment>
3.91976465247

$$$$
315
 OpenBabel08101817183D

 18 18  0  0  0  0  0  0  0  0999 V2000
    3.2660   -0.7619    0.9373 C   0  0  0  0  0  0  0  0  0  0  0  0
    2.4163    0.1165    0.0538 C   0  0  0  0  0  0  0  0  0  0  0  0
    2.8438    0.9417   -0.7276 O   0  0  0  0  0  0  0  0  0  0  0  0
    1.0910   -0.1305    0.2396 O   0  0  0  0  0  0  0  0  0  0  0  0
    0.1985    0.6938   -0.5767 C   0  0  0  0  0  0  0  0  0  0  0  0
   -1.1939    0.2511   -0.3714 C   0  0  0  0  0  0  0  0  0  0  0  0
   -2.0488   -0.5198   -1.1116 C   0  0  0  0  0  0  0  0  0  0  0  0
   -3.2747   -0.5938   -0.3808 C   0  0  0  0  0  0  0  0  0  0  0  0
   -3.0811    0.1373    0.7553 C   0  0  0  0  0  0  0  0  0  0  0  0
   -1.8229    0.6638    0.7794 O   0  0  0  0  0  0  0  0  0  0  0  0
    2.6662   -1.4634    1.5238 H   0  0  0  0  0  0  0  0  0  0  0  0
    3.9787   -1.3107    0.3099 H   0  0  0  0  0  0  0  0  0  0  0  0
    3.8505   -0.1224    1.6110 H   0  0  0  0  0  0  0  0  0  0  0  0
    0.4827    0.5895   -1.6311 H   0  0  0  0  0  0  0  0  0  0  0  0
    0.3406    1.7441   -0.2870 H   0  0  0  0  0  0  0  0  0  0  0  0
   -1.8236   -0.9808   -2.0672 H   0  0  0  0  0  0  0  0  0  0  0  0
   -4.1811   -1.1175   -0.6624 H   0  0  0  0  0  0  0  0  0  0  0  0
   -3.7078    0.3771    1.6056 H   0  0  0  0  0  0  0  0  0  0  0  0
  1 11  1  0  0  0  0
  1 13  1  0  0  0  0
  2  4  1  0  0  0  0
  2  1  1  0  0  0  0
  3  2  2  0  0  0  0
  5  6  1  0  0  0  0
  5 15  1  0  0  0  0
  5  4  1  0  0  0  0
  6 10  1  0  0  0  0
  7  8  1  0  0  0  0
  7  6  2  0  0  0  0
  8  9  2  0  0  0  0
  9 10  1  0  0  0  0
  9 18  1  0  0  0  0
 12  1  1  0  0  0  0
 14  5  1  0  0  0  0
 16  7  1  0  0  0  0
 17  8  1  0  0  0  0
M  END
>  <Charge>
0.0

>  <InChI>
1/C7H8O3/c1-6(8)10-5-7-3-2-4-9-7/h2-4H,5H2,1H3

>  <Molecular Formula>
C_{7}H_{8}O_{3}

>  <Name>
LU9120000 [RTECS]

>  <SMILES>
CC(=O)OCc1ccco1

>  <logK (UNDECANE)>
4.34

>  <dipole moment>
2.19019994287

>  <mean polarizability>
14.5

$$$$
316
 OpenBabel08101817183D

 13 12  0  0  0  0  0  0  0  0999 V2000
   -1.4529    0.1477   -0.8364 C   0  0  0  0  0  0  0  0  0  0  0  0
   -0.9891    0.7358    0.4577 C   0  0  0  0  0  0  0  0  0  0  0  0
    0.1541    0.4664    1.1211 C   0  0  0  0  0  0  0  0  0  0  0  0
    1.2356   -0.4391    0.7416 C   0  0  0  0  0  0  0  0  0  0  0  0
    1.6736   -0.7263   -0.4962 C   0  0  0  0  0  0  0  0  0  0  0  0
   -1.2473    0.8239   -1.6827 H   0  0  0  0  0  0  0  0  0  0  0  0
   -0.9565   -0.8066   -1.0553 H   0  0  0  0  0  0  0  0  0  0  0  0
   -2.5403   -0.0105   -0.8232 H   0  0  0  0  0  0  0  0  0  0  0  0
   -1.6749    1.4445    0.9299 H   0  0  0  0  0  0  0  0  0  0  0  0
    0.2812    0.9468    2.0955 H   0  0  0  0  0  0  0  0  0  0  0  0
    1.7614   -0.9035    1.5829 H   0  0  0  0  0  0  0  0  0  0  0  0
    1.2559   -0.2580   -1.3863 H   0  0  0  0  0  0  0  0  0  0  0  0
    2.4993   -1.4210   -0.6486 H   0  0  0  0  0  0  0  0  0  0  0  0
  1  8  1  0  0  0  0
  1  2  1  0  0  0  0
  2  9  1  0  0  0  0
  2  3  2  0  0  0  0
  3 10  1  0  0  0  0
  4  3  1  0  0  0  0
  4 11  1  0  0  0  0
  5  4  2  0  0  0  0
  6  1  1  0  0  0  0
  7  1  1  0  0  0  0
 12  5  1  0  0  0  0
 13  5  1  0  0  0  0
M  END
>  <Charge>
0.0

>  <InChI>
1/C5H8/c1-3-5-4-2/h3-5H,1H2,2H3/b5-4-

>  <Molecular Formula>
C_{5}H_{8}

>  <Name>
CIS-PIPERYLENE

>  <SMILES>
C/C=C\C=C

>  <logK (DIMETHYLFORMAMIDE)>
2.27

>  <logK (DODECANE)>
2.33

>  <logK (N,N-DIMETHYLACETAMIDE)>
2.29

>  <logK (N-ETHYLACETAMIDE)>
2.17

>  <logK (N-METHYLACETAMIDE)>
2.12

>  <logK (N-METHYLFORMAMIDE)>
1.96

>  <logK (N-METHYLPYRROLIDONE)>
2.28

>  <mean polarizability>
9.82

>  <dipole moment>
0.393232247523

$$$$
317
 OpenBabel08101817183D

 13 12  0  0  0  0  0  0  0  0999 V2000
    2.3246    0.2563   -0.2841 C   0  0  0  0  0  0  0  0  0  0  0  0
    0.9985   -0.3268    0.1131 C   0  0  0  0  0  0  0  0  0  0  0  0
   -0.2019    0.1563   -0.2607 C   0  0  0  0  0  0  0  0  0  0  0  0
   -1.4699   -0.4215    0.1341 C   0  0  0  0  0  0  0  0  0  0  0  0
   -2.6739    0.0521   -0.2328 C   0  0  0  0  0  0  0  0  0  0  0  0
    3.1600   -0.3101    0.1432 H   0  0  0  0  0  0  0  0  0  0  0  0
    2.4259    1.2988    0.0528 H   0  0  0  0  0  0  0  0  0  0  0  0
    2.4538    0.2615   -1.3767 H   0  0  0  0  0  0  0  0  0  0  0  0
    1.0151   -1.2126    0.7557 H   0  0  0  0  0  0  0  0  0  0  0  0
   -0.2473    1.0425   -0.9043 H   0  0  0  0  0  0  0  0  0  0  0  0
   -1.4197   -1.3064    0.7769 H   0  0  0  0  0  0  0  0  0  0  0  0
   -2.7666    0.9316   -0.8723 H   0  0  0  0  0  0  0  0  0  0  0  0
   -3.5985   -0.4217    0.0933 H   0  0  0  0  0  0  0  0  0  0  0  0
  1  7  1  0  0  0  0
  1  2  1  0  0  0  0
  1  6  1  0  0  0  0
  2  9  1  0  0  0  0
  3  2  2  0  0  0  0
  3  4  1  0  0  0  0
  4 11  1  0  0  0  0
  5 13  1  0  0  0  0
  5  4  2  0  0  0  0
  8  1  1  0  0  0  0
 10  3  1  0  0  0  0
 12  5  1  0  0  0  0
M  END
>  <Charge>
0.0

>  <InChI>
1/C5H8/c1-3-5-4-2/h3-5H,1H2,2H3/b5-4+

>  <Molecular Formula>
C_{5}H_{8}

>  <Name>
TRANS-PIPERYLENE

>  <SMILES>
C/C=C/C=C

>  <logK (BENZONITRILE)>
2.387

>  <logK (DIMETHYLFORMAMIDE)>
2.23

>  <logK (DODECANE)>
2.31

>  <logK (N,N-DIMETHYLACETAMIDE)>
2.25

>  <logK (N-ETHYLACETAMIDE)>
2.22

>  <logK (N-METHYLACETAMIDE)>
2.19

>  <logK (N-METHYLFORMAMIDE)>
1.9

>  <logK (N-METHYLPYRROLIDONE)>
2.23

>  <mean polarizability>
10.66

>  <dipole moment>
0.726368751011

$$$$
318
 OpenBabel08101817183D

 15 14  0  0  0  0  0  0  0  0999 V2000
    1.2178   -0.2701   -0.2203 C   0  0  0  0  0  0  0  0  0  0  0  0
    2.3138    0.5171    0.4869 C   0  0  0  0  0  0  0  0  0  0  0  0
    2.2691    1.8347    0.1902 F   0  0  0  0  0  0  0  0  0  0  0  0
    3.5242    0.0411    0.0858 F   0  0  0  0  0  0  0  0  0  0  0  0
    2.2458    0.3931    1.8309 F   0  0  0  0  0  0  0  0  0  0  0  0
   -0.0347    0.2252    0.1975 O   0  0  0  0  0  0  0  0  0  0  0  0
   -1.1059   -0.4567   -0.4160 C   0  0  0  0  0  0  0  0  0  0  0  0
   -2.4148    0.1388    0.0873 C   0  0  0  0  0  0  0  0  0  0  0  0
   -2.5536    0.0100    1.4253 F   0  0  0  0  0  0  0  0  0  0  0  0
   -2.5292    1.4507   -0.2160 F   0  0  0  0  0  0  0  0  0  0  0  0
   -3.4509   -0.5168   -0.5036 F   0  0  0  0  0  0  0  0  0  0  0  0
    1.3486   -1.3357    0.0408 H   0  0  0  0  0  0  0  0  0  0  0  0
    1.3675   -0.1501   -1.3084 H   0  0  0  0  0  0  0  0  0  0  0  0
   -1.0891   -0.3482   -1.5154 H   0  0  0  0  0  0  0  0  0  0  0  0
   -1.1086   -1.5327   -0.1652 H   0  0  0  0  0  0  0  0  0  0  0  0
  1 12  1  0  0  0  0
  1  6  1  0  0  0  0
  1  2  1  0  0  0  0
  2  5  1  0  0  0  0
  3  2  1  0  0  0  0
  4  2  1  0  0  0  0
  7 15  1  0  0  0  0
  7  8  1  0  0  0  0
  7  6  1  0  0  0  0
  8  9  1  0  0  0  0
 10  8  1  0  0  0  0
 11  8  1  0  0  0  0
 13  1  1  0  0  0  0
 14  7  1  0  0  0  0
M  END
>  <Charge>
0.0

>  <InChI>
1/C4H4F6O/c5-3(6,7)1-11-2-4(8,9)10/h1-2H2

>  <Molecular Formula>
C_{4}H_{4}F_{6}O

>  <Name>
FLUROTHYL

>  <SMILES>
C(C(F)(F)F)OCC(F)(F)F

>  <logK (DODECANE)>
1.47

>  <mean polarizability>
9.56

>  <dipole moment>
3.29391528691

$$$$
319
 OpenBabel08101817183D

 18 17  0  0  0  0  0  0  0  0999 V2000
    2.4943    0.5194   -0.4172 C   0  0  0  0  0  0  0  0  0  0  0  0
    1.1716    0.2638   -1.1610 C   0  0  0  0  0  0  0  0  0  0  0  0
    0.4342   -0.9150   -0.5473 C   0  0  0  0  0  0  0  0  0  0  0  0
    0.5219   -2.0386   -1.0076 O   0  0  0  0  0  0  0  0  0  0  0  0
   -0.4022   -0.6551    0.7116 C   0  0  0  0  0  0  0  0  0  0  0  0
   -1.9079   -0.5383    0.4196 C   0  0  0  0  0  0  0  0  0  0  0  0
   -2.7029   -1.2773    0.9647 O   0  0  0  0  0  0  0  0  0  0  0  0
   -2.3434    0.5275   -0.5621 C   0  0  0  0  0  0  0  0  0  0  0  0
    3.0234    1.3715   -0.8619 H   0  0  0  0  0  0  0  0  0  0  0  0
    2.3276    0.7468    0.6446 H   0  0  0  0  0  0  0  0  0  0  0  0
    3.1485   -0.3593   -0.4786 H   0  0  0  0  0  0  0  0  0  0  0  0
    1.3711    0.0271   -2.2139 H   0  0  0  0  0  0  0  0  0  0  0  0
    0.5444    1.1669   -1.1151 H   0  0  0  0  0  0  0  0  0  0  0  0
   -0.2733   -1.4926    1.4053 H   0  0  0  0  0  0  0  0  0  0  0  0
   -0.0796    0.2814    1.1924 H   0  0  0  0  0  0  0  0  0  0  0  0
   -1.9310    1.5094   -0.2896 H   0  0  0  0  0  0  0  0  0  0  0  0
   -3.4359    0.5767   -0.5970 H   0  0  0  0  0  0  0  0  0  0  0  0
   -1.9608    0.2857   -1.5656 H   0  0  0  0  0  0  0  0  0  0  0  0
  1 10  1  0  0  0  0
  2 13  1  0  0  0  0
  2  3  1  0  0  0  0
  2  1  1  0  0  0  0
  3  5  1  0  0  0  0
  4  3  2  0  0  0  0
  5 15  1  0  0  0  0
  5 14  1  0  0  0  0
  6  5  1  0  0  0  0
  6  7  2  0  0  0  0
  8 16  1  0  0  0  0
  8  6  1  0  0  0  0
  9  1  1  0  0  0  0
 11  1  1  0  0  0  0
 12  2  1  0  0  0  0
 17  8  1  0  0  0  0
 18  8  1  0  0  0  0
M  END
>  <Charge>
0.0

>  <InChI>
1/C6H10O2/c1-3-6(8)4-5(2)7/h3-4H2,1-2H3

>  <Molecular Formula>
C_{6}H_{10}O_{2}

>  <Name>
2,4-HEXANEDIONE

>  <SMILES>
CCC(=O)CC(=O)C

>  <logK (DODECANE)>
3.88

>  <dipole moment>
4.72282633741

>  <mean polarizability>
12.53

$$$$
320
 OpenBabel08101817183D

 21 20  0  0  0  0  0  0  0  0999 V2000
   -3.3321    0.1267   -0.6088 C   0  0  0  0  0  0  0  0  0  0  0  0
   -1.9978   -0.6155   -0.5424 C   0  0  0  0  0  0  0  0  0  0  0  0
   -1.0144    0.0462    0.4435 C   0  0  0  0  0  0  0  0  0  0  0  0
    0.3071   -0.6884    0.5007 C   0  0  0  0  0  0  0  0  0  0  0  0
    0.5916   -1.4763    1.3858 O   0  0  0  0  0  0  0  0  0  0  0  0
    1.3095   -0.3707   -0.6195 C   0  0  0  0  0  0  0  0  0  0  0  0
    2.1517    0.8340   -0.1754 C   0  0  0  0  0  0  0  0  0  0  0  0
    1.8021    1.9715   -0.4341 O   0  0  0  0  0  0  0  0  0  0  0  0
    3.3873    0.5101    0.6260 C   0  0  0  0  0  0  0  0  0  0  0  0
   -4.0217   -0.3615   -1.3100 H   0  0  0  0  0  0  0  0  0  0  0  0
   -3.8195    0.1550    0.3756 H   0  0  0  0  0  0  0  0  0  0  0  0
   -3.1931    1.1648   -0.9418 H   0  0  0  0  0  0  0  0  0  0  0  0
   -2.1631   -1.6586   -0.2339 H   0  0  0  0  0  0  0  0  0  0  0  0
   -1.5473   -0.6540   -1.5463 H   0  0  0  0  0  0  0  0  0  0  0  0
   -1.4458    0.0477    1.4537 H   0  0  0  0  0  0  0  0  0  0  0  0
   -0.8325    1.0871    0.1312 H   0  0  0  0  0  0  0  0  0  0  0  0
    1.9418   -1.2529   -0.7704 H   0  0  0  0  0  0  0  0  0  0  0  0
    0.7869   -0.0946   -1.5423 H   0  0  0  0  0  0  0  0  0  0  0  0
    3.8258    1.4231    1.0400 H   0  0  0  0  0  0  0  0  0  0  0  0
    4.1224    0.0092   -0.0219 H   0  0  0  0  0  0  0  0  0  0  0  0
    3.1412   -0.2027    1.4268 H   0  0  0  0  0  0  0  0  0  0  0  0
  1  2  1  0  0  0  0
  1 11  1  0  0  0  0
  2 13  1  0  0  0  0
  2  3  1  0  0  0  0
  3  4  1  0  0  0  0
  3 15  1  0  0  0  0
  4  5  2  0  0  0  0
  6  7  1  0  0  0  0
  6  4  1  0  0  0  0
  7  9  1  0  0  0  0
  8  7  2  0  0  0  0
  9 19  1  0  0  0  0
  9 21  1  0  0  0  0
 10  1  1  0  0  0  0
 12  1  1  0  0  0  0
 14  2  1  0  0  0  0
 16  3  1  0  0  0  0
 17  6  1  0  0  0  0
 18  6  1  0  0  0  0
 20  9  1  0  0  0  0
M  END
>  <Charge>
0.0

>  <InChI>
1/C7H12O2/c1-3-4-7(9)5-6(2)8/h3-5H2,1-2H3

>  <Molecular Formula>
C_{7}H_{12}O_{2}

>  <Name>
2,4-HEPTANDIONE

>  <SMILES>
CCCC(=O)CC(=O)C

>  <logK (DODECANE)>
4.32

>  <mean polarizability>
14.52

>  <dipole moment>
1.55017826465

$$$$
321
 OpenBabel08101817183D

 24 23  0  0  0  0  0  0  0  0999 V2000
   -4.0249    0.1353    0.4349 C   0  0  0  0  0  0  0  0  0  0  0  0
   -2.6835   -0.5703    0.6332 C   0  0  0  0  0  0  0  0  0  0  0  0
   -1.5699    0.0102   -0.2410 C   0  0  0  0  0  0  0  0  0  0  0  0
   -0.2325   -0.6923   -0.0379 C   0  0  0  0  0  0  0  0  0  0  0  0
    0.9013   -0.1671   -0.8907 C   0  0  0  0  0  0  0  0  0  0  0  0
    0.7612    0.6800   -1.7546 O   0  0  0  0  0  0  0  0  0  0  0  0
    2.2915   -0.7363   -0.5650 C   0  0  0  0  0  0  0  0  0  0  0  0
    2.9534    0.1899    0.4650 C   0  0  0  0  0  0  0  0  0  0  0  0
    2.8083    0.0004    1.6594 O   0  0  0  0  0  0  0  0  0  0  0  0
    3.7343    1.3486   -0.1008 C   0  0  0  0  0  0  0  0  0  0  0  0
   -3.9511    1.2039    0.6829 H   0  0  0  0  0  0  0  0  0  0  0  0
   -4.3617    0.0615   -0.6090 H   0  0  0  0  0  0  0  0  0  0  0  0
   -4.8074   -0.3009    1.0700 H   0  0  0  0  0  0  0  0  0  0  0  0
   -2.3866   -0.5073    1.6929 H   0  0  0  0  0  0  0  0  0  0  0  0
   -2.7964   -1.6450    0.4142 H   0  0  0  0  0  0  0  0  0  0  0  0
   -1.4502    1.0838   -0.0284 H   0  0  0  0  0  0  0  0  0  0  0  0
   -1.8550   -0.0512   -1.3022 H   0  0  0  0  0  0  0  0  0  0  0  0
   -0.3170   -1.7745   -0.2467 H   0  0  0  0  0  0  0  0  0  0  0  0
    0.1025   -0.6437    1.0141 H   0  0  0  0  0  0  0  0  0  0  0  0
    2.2099   -1.7352   -0.1217 H   0  0  0  0  0  0  0  0  0  0  0  0
    2.8725   -0.7608   -1.4940 H   0  0  0  0  0  0  0  0  0  0  0  0
    3.1449    1.8543   -0.8802 H   0  0  0  0  0  0  0  0  0  0  0  0
    4.0143    2.0478    0.6929 H   0  0  0  0  0  0  0  0  0  0  0  0
    4.6422    0.9689   -0.5937 H   0  0  0  0  0  0  0  0  0  0  0  0
  1  2  1  0  0  0  0
  1 11  1  0  0  0  0
  1 13  1  0  0  0  0
  2 14  1  0  0  0  0
  3  4  1  0  0  0  0
  3 16  1  0  0  0  0
  3  2  1  0  0  0  0
  4 19  1  0  0  0  0
  5  7  1  0  0  0  0
  5  4  1  0  0  0  0
  6  5  2  0  0  0  0
  7 20  1  0  0  0  0
  7  8  1  0  0  0  0
  8  9  2  0  0  0  0
 10  8  1  0  0  0  0
 10 23  1  0  0  0  0
 12  1  1  0  0  0  0
 15  2  1  0  0  0  0
 17  3  1  0  0  0  0
 18  4  1  0  0  0  0
 21  7  1  0  0  0  0
 22 10  1  0  0  0  0
 24 10  1  0  0  0  0
M  END
>  <Charge>
0.0

>  <InChI>
1/C8H14O2/c1-3-4-5-8(10)6-7(2)9/h3-6H2,1-2H3

>  <Molecular Formula>
C_{8}H_{14}O_{2}

>  <Name>
2,4-OCTANEDIONE

>  <SMILES>
CCCCC(=O)CC(=O)C

>  <logK (DODECANE)>
4.74

>  <mean polarizability>
16.39

>  <dipole moment>
1.38819828283

$$$$
322
 OpenBabel08101817183D

 27 26  0  0  0  0  0  0  0  0999 V2000
    3.8730   -0.0548    0.0679 C   0  0  0  0  0  0  0  0  0  0  0  0
    2.7360    0.7617   -0.5492 C   0  0  0  0  0  0  0  0  0  0  0  0
    1.6949    1.2599    0.4633 C   0  0  0  0  0  0  0  0  0  0  0  0
    0.9374    0.1683    1.2318 C   0  0  0  0  0  0  0  0  0  0  0  0
    0.0976   -0.7844    0.3526 C   0  0  0  0  0  0  0  0  0  0  0  0
   -0.9960   -0.0727   -0.4142 C   0  0  0  0  0  0  0  0  0  0  0  0
   -0.9462    0.1305   -1.6153 O   0  0  0  0  0  0  0  0  0  0  0  0
   -2.2283    0.3536    0.3994 C   0  0  0  0  0  0  0  0  0  0  0  0
   -3.2304   -0.8097    0.3822 C   0  0  0  0  0  0  0  0  0  0  0  0
   -3.2046   -1.6702    1.2434 O   0  0  0  0  0  0  0  0  0  0  0  0
   -4.1934   -0.8280   -0.7783 C   0  0  0  0  0  0  0  0  0  0  0  0
    4.3873    0.5125    0.8577 H   0  0  0  0  0  0  0  0  0  0  0  0
    3.5145   -0.9921    0.5160 H   0  0  0  0  0  0  0  0  0  0  0  0
    4.6219   -0.3239   -0.6889 H   0  0  0  0  0  0  0  0  0  0  0  0
    3.1596    1.6397   -1.0600 H   0  0  0  0  0  0  0  0  0  0  0  0
    2.2385    0.1751   -1.3367 H   0  0  0  0  0  0  0  0  0  0  0  0
    0.9721    1.9041   -0.0626 H   0  0  0  0  0  0  0  0  0  0  0  0
    2.1978    1.9068    1.2008 H   0  0  0  0  0  0  0  0  0  0  0  0
    0.2838    0.6445    1.9788 H   0  0  0  0  0  0  0  0  0  0  0  0
    1.6436   -0.4475    1.8079 H   0  0  0  0  0  0  0  0  0  0  0  0
    0.7343   -1.3033   -0.3754 H   0  0  0  0  0  0  0  0  0  0  0  0
   -0.3764   -1.5366    1.0031 H   0  0  0  0  0  0  0  0  0  0  0  0
   -1.9603    0.5527    1.4432 H   0  0  0  0  0  0  0  0  0  0  0  0
   -2.6576    1.2429   -0.0760 H   0  0  0  0  0  0  0  0  0  0  0  0
   -4.9088    0.0018   -0.6695 H   0  0  0  0  0  0  0  0  0  0  0  0
   -4.7378   -1.7767   -0.8095 H   0  0  0  0  0  0  0  0  0  0  0  0
   -3.6530   -0.6540   -1.7205 H   0  0  0  0  0  0  0  0  0  0  0  0
  1 13  1  0  0  0  0
  1 12  1  0  0  0  0
  2  1  1  0  0  0  0
  2  3  1  0  0  0  0
  3 18  1  0  0  0  0
  3  4  1  0  0  0  0
  4 20  1  0  0  0  0
  4 19  1  0  0  0  0
  5 22  1  0  0  0  0
  5  4  1  0  0  0  0
  6  5  1  0  0  0  0
  6  8  1  0  0  0  0
  7  6  2  0  0  0  0
  8 23  1  0  0  0  0
  9  8  1  0  0  0  0
  9 10  2  0  0  0  0
 11 25  1  0  0  0  0
 11  9  1  0  0  0  0
 14  1  1  0  0  0  0
 15  2  1  0  0  0  0
 16  2  1  0  0  0  0
 17  3  1  0  0  0  0
 21  5  1  0  0  0  0
 24  8  1  0  0  0  0
 26 11  1  0  0  0  0
 27 11  1  0  0  0  0
M  END
>  <Charge>
0.0

>  <InChI>
1/C9H16O2/c1-3-4-5-6-9(11)7-8(2)10/h3-7H2,1-2H3

>  <Molecular Formula>
C_{9}H_{16}O_{2}

>  <Name>
2,4-NONANEDIONE

>  <SMILES>
CCCCCC(=O)CC(=O)C

>  <logK (DODECANE)>
5.29

>  <dipole moment>
1.59734640273

>  <mean polarizability>
18.09

$$$$
323
 OpenBabel08101817183D

 24 23  0  0  0  0  0  0  0  0999 V2000
    3.6038    0.4649    0.6361 C   0  0  0  0  0  0  0  0  0  0  0  0
    2.0981    0.2135    0.5619 C   0  0  0  0  0  0  0  0  0  0  0  0
    1.7649   -1.0575   -0.2450 C   0  0  0  0  0  0  0  0  0  0  0  0
    0.2731   -1.2949   -0.3490 C   0  0  0  0  0  0  0  0  0  0  0  0
   -0.2914   -2.1826    0.2676 O   0  0  0  0  0  0  0  0  0  0  0  0
   -0.5206   -0.3333   -1.2502 C   0  0  0  0  0  0  0  0  0  0  0  0
   -1.4303    0.5830   -0.4168 C   0  0  0  0  0  0  0  0  0  0  0  0
   -1.1000    1.7308   -0.1770 O   0  0  0  0  0  0  0  0  0  0  0  0
   -2.7148   -0.0386    0.0827 C   0  0  0  0  0  0  0  0  0  0  0  0
   -3.4973    0.8313    1.0569 C   0  0  0  0  0  0  0  0  0  0  0  0
    4.0340    0.6076   -0.3656 H   0  0  0  0  0  0  0  0  0  0  0  0
    3.8238    1.3645    1.2257 H   0  0  0  0  0  0  0  0  0  0  0  0
    4.1273   -0.3796    1.1065 H   0  0  0  0  0  0  0  0  0  0  0  0
    1.5924    1.0841    0.1189 H   0  0  0  0  0  0  0  0  0  0  0  0
    1.6872    0.1030    1.5767 H   0  0  0  0  0  0  0  0  0  0  0  0
    2.1832   -0.9577   -1.2603 H   0  0  0  0  0  0  0  0  0  0  0  0
    2.2141   -1.9397    0.2308 H   0  0  0  0  0  0  0  0  0  0  0  0
    0.1466    0.2968   -1.8479 H   0  0  0  0  0  0  0  0  0  0  0  0
   -1.1382   -0.9601   -1.9086 H   0  0  0  0  0  0  0  0  0  0  0  0
   -3.3154   -0.2818   -0.8120 H   0  0  0  0  0  0  0  0  0  0  0  0
   -2.4528   -1.0222    0.5094 H   0  0  0  0  0  0  0  0  0  0  0  0
   -2.9197    1.0153    1.9716 H   0  0  0  0  0  0  0  0  0  0  0  0
   -3.7290    1.8094    0.6177 H   0  0  0  0  0  0  0  0  0  0  0  0
   -4.4388    0.3437    1.3392 H   0  0  0  0  0  0  0  0  0  0  0  0
  1 13  1  0  0  0  0
  1 12  1  0  0  0  0
  2  1  1  0  0  0  0
  2 15  1  0  0  0  0
  3 17  1  0  0  0  0
  3  2  1  0  0  0  0
  4  3  1  0  0  0  0
  4  5  2  0  0  0  0
  6  7  1  0  0  0  0
  6  4  1  0  0  0  0
  7  8  2  0  0  0  0
  7  9  1  0  0  0  0
  9 21  1  0  0  0  0
  9 10  1  0  0  0  0
 10 24  1  0  0  0  0
 10 22  1  0  0  0  0
 11  1  1  0  0  0  0
 14  2  1  0  0  0  0
 16  3  1  0  0  0  0
 18  6  1  0  0  0  0
 19  6  1  0  0  0  0
 20  9  1  0  0  0  0
 23 10  1  0  0  0  0
M  END
>  <Charge>
0.0

>  <InChI>
1/C8H14O2/c1-3-5-8(10)6-7(9)4-2/h3-6H2,1-2H3

>  <Molecular Formula>
C_{8}H_{14}O_{2}

>  <Name>
3,5-OCTANEDIONE

>  <SMILES>
CCCC(=O)CC(=O)CC

>  <logK (DODECANE)>
4.77

>  <mean polarizability>
16.27

>  <dipole moment>
1.57671516103

$$$$
324
 OpenBabel08101817183D

 27 26  0  0  0  0  0  0  0  0999 V2000
    4.0528    0.3475   -0.7753 C   0  0  0  0  0  0  0  0  0  0  0  0
    3.0979   -0.4849    0.0793 C   0  0  0  0  0  0  0  0  0  0  0  0
    1.6848   -0.5710   -0.5327 C   0  0  0  0  0  0  0  0  0  0  0  0
    0.7639   -1.3905    0.3538 C   0  0  0  0  0  0  0  0  0  0  0  0
    0.5817   -2.5809    0.1626 O   0  0  0  0  0  0  0  0  0  0  0  0
    0.0979   -0.6871    1.5372 C   0  0  0  0  0  0  0  0  0  0  0  0
   -1.3991   -0.3787    1.3288 C   0  0  0  0  0  0  0  0  0  0  0  0
   -2.2005   -0.6116    2.2114 O   0  0  0  0  0  0  0  0  0  0  0  0
   -1.7988    0.2360    0.0004 C   0  0  0  0  0  0  0  0  0  0  0  0
   -3.2679    0.6330   -0.1035 C   0  0  0  0  0  0  0  0  0  0  0  0
   -3.6212    1.2123   -1.4726 C   0  0  0  0  0  0  0  0  0  0  0  0
    3.6987    1.3830   -0.8768 H   0  0  0  0  0  0  0  0  0  0  0  0
    4.1496   -0.0726   -1.7859 H   0  0  0  0  0  0  0  0  0  0  0  0
    5.0554    0.3797   -0.3286 H   0  0  0  0  0  0  0  0  0  0  0  0
    3.4897   -1.5058    0.1972 H   0  0  0  0  0  0  0  0  0  0  0  0
    3.0381   -0.0559    1.0919 H   0  0  0  0  0  0  0  0  0  0  0  0
    1.7376   -1.0555   -1.5170 H   0  0  0  0  0  0  0  0  0  0  0  0
    1.2853    0.4474   -0.6612 H   0  0  0  0  0  0  0  0  0  0  0  0
    0.1666   -1.3279    2.4235 H   0  0  0  0  0  0  0  0  0  0  0  0
    0.5970    0.2723    1.7470 H   0  0  0  0  0  0  0  0  0  0  0  0
   -1.1387    1.1011   -0.1903 H   0  0  0  0  0  0  0  0  0  0  0  0
   -1.5361   -0.4959   -0.7854 H   0  0  0  0  0  0  0  0  0  0  0  0
   -3.5003    1.3601    0.6882 H   0  0  0  0  0  0  0  0  0  0  0  0
   -3.8907   -0.2468    0.1108 H   0  0  0  0  0  0  0  0  0  0  0  0
   -3.0266    2.1100   -1.6963 H   0  0  0  0  0  0  0  0  0  0  0  0
   -3.4366    0.4849   -2.2763 H   0  0  0  0  0  0  0  0  0  0  0  0
   -4.6805    1.4978   -1.5206 H   0  0  0  0  0  0  0  0  0  0  0  0
  1 14  1  0  0  0  0
  1  2  1  0  0  0  0
  2 15  1  0  0  0  0
  2 16  1  0  0  0  0
  3  2  1  0  0  0  0
  3  4  1  0  0  0  0
  4  6  1  0  0  0  0
  5  4  2  0  0  0  0
  6 20  1  0  0  0  0
  6 19  1  0  0  0  0
  7  6  1  0  0  0  0
  7  8  2  0  0  0  0
  9  7  1  0  0  0  0
 10  9  1  0  0  0  0
 10 24  1  0  0  0  0
 10 23  1  0  0  0  0
 11 10  1  0  0  0  0
 12  1  1  0  0  0  0
 13  1  1  0  0  0  0
 17  3  1  0  0  0  0
 18  3  1  0  0  0  0
 21  9  1  0  0  0  0
 22  9  1  0  0  0  0
 25 11  1  0  0  0  0
 26 11  1  0  0  0  0
 27 11  1  0  0  0  0
M  END
>  <Charge>
0.0

>  <InChI>
1/C9H16O2/c1-3-5-8(10)7-9(11)6-4-2/h3-7H2,1-2H3

>  <Molecular Formula>
C_{9}H_{16}O_{2}

>  <Name>
4,6-NONANEDIONE

>  <SMILES>
CCCC(=O)CC(=O)CCC

>  <logK (CHLOROBENZENE)>
6.03

>  <logK (DODECANE)>
5.31

>  <dipole moment>
4.31179410111

>  <mean polarizability>
18.32

$$$$
325
 OpenBabel08101817183D

 18 17  0  0  0  0  0  0  0  0999 V2000
    3.1276   -0.3315   -0.0564 C   0  0  0  0  0  0  0  0  0  0  0  0
    2.2109    0.5157    0.8052 C   0  0  0  0  0  0  0  0  0  0  0  0
    0.9695   -0.1781    1.1037 O   0  0  0  0  0  0  0  0  0  0  0  0
   -0.0026   -0.0416    0.1796 C   0  0  0  0  0  0  0  0  0  0  0  0
    0.0555    0.6203   -0.8378 O   0  0  0  0  0  0  0  0  0  0  0  0
   -1.0516   -0.7784    0.5975 O   0  0  0  0  0  0  0  0  0  0  0  0
   -2.2287   -0.7200   -0.2517 C   0  0  0  0  0  0  0  0  0  0  0  0
   -3.1178    0.4534    0.1134 C   0  0  0  0  0  0  0  0  0  0  0  0
    4.0825    0.1916   -0.2039 H   0  0  0  0  0  0  0  0  0  0  0  0
    2.6822   -0.5108   -1.0425 H   0  0  0  0  0  0  0  0  0  0  0  0
    3.3357   -1.2966    0.4230 H   0  0  0  0  0  0  0  0  0  0  0  0
    1.9737    1.4708    0.3201 H   0  0  0  0  0  0  0  0  0  0  0  0
    2.6495    0.7066    1.7919 H   0  0  0  0  0  0  0  0  0  0  0  0
   -2.7317   -1.6779   -0.0719 H   0  0  0  0  0  0  0  0  0  0  0  0
   -1.9067   -0.6681   -1.2994 H   0  0  0  0  0  0  0  0  0  0  0  0
   -4.0328    0.4273   -0.4947 H   0  0  0  0  0  0  0  0  0  0  0  0
   -3.4075    0.4120    1.1713 H   0  0  0  0  0  0  0  0  0  0  0  0
   -2.6078    1.4052   -0.0802 H   0  0  0  0  0  0  0  0  0  0  0  0
  1 11  1  0  0  0  0
  1  2  1  0  0  0  0
  2  3  1  0  0  0  0
  2 13  1  0  0  0  0
  4  6  1  0  0  0  0
  4  3  1  0  0  0  0
  5  4  2  0  0  0  0
  7 14  1  0  0  0  0
  7  8  1  0  0  0  0
  7  6  1  0  0  0  0
  8 17  1  0  0  0  0
  9  1  1  0  0  0  0
 10  1  1  0  0  0  0
 12  2  1  0  0  0  0
 15  7  1  0  0  0  0
 16  8  1  0  0  0  0
 18  8  1  0  0  0  0
M  END
>  <Charge>
0.0

>  <InChI>
1/C5H10O3/c1-3-7-5(6)8-4-2/h3-4H2,1-2H3

>  <Molecular Formula>
C_{5}H_{10}O_{3}

>  <Name>
ETHYL CARBONATE

>  <SMILES>
CCOC(=O)OCC

>  <logK (CARBON TETRACHLORIDE)>
4.236

>  <logK (DODECANE)>
3.23

>  <logK (METHYL TERT-BUTYL ETHER)>
3.92

>  <mean polarizability>
11.6

>  <dipole moment>
0.2823327549

$$$$
326
 OpenBabel08101817183D

 27 26  0  0  1  0  0  0  0  0999 V2000
    2.6000   -1.0037   -1.3099 C   0  0  0  0  0  0  0  0  0  0  0  0
    1.3845   -1.1643   -0.3937 C   0  0  0  0  0  0  0  0  0  0  0  0
    0.8318    0.1519    0.1840 C   0  0  1  0  0  0  0  0  0  0  0  0
   -0.5972   -0.0039    0.7342 C   0  0  0  0  0  0  0  0  0  0  0  0
   -1.7240   -0.1775   -0.2995 C   0  0  0  0  0  0  0  0  0  0  0  0
   -1.8941    1.0602   -1.1875 C   0  0  0  0  0  0  0  0  0  0  0  0
   -3.0414   -0.5062    0.4130 C   0  0  0  0  0  0  0  0  0  0  0  0
    1.7588    0.6885    1.2742 C   0  0  0  0  0  0  0  0  0  0  0  0
    1.3652    2.0289    1.6010 O   0  0  0  0  0  0  0  0  0  0  0  0
    3.4564   -0.5509   -0.7928 H   0  0  0  0  0  0  0  0  0  0  0  0
    2.9325   -1.9745   -1.7013 H   0  0  0  0  0  0  0  0  0  0  0  0
    2.3607   -0.3636   -2.1710 H   0  0  0  0  0  0  0  0  0  0  0  0
    1.6301   -1.8448    0.4400 H   0  0  0  0  0  0  0  0  0  0  0  0
    0.5844   -1.6659   -0.9579 H   0  0  0  0  0  0  0  0  0  0  0  0
    0.8267    0.9088   -0.6188 H   0  0  0  0  0  0  0  0  0  0  0  0
   -0.6077   -0.8706    1.4190 H   0  0  0  0  0  0  0  0  0  0  0  0
   -0.8310    0.8793    1.3498 H   0  0  0  0  0  0  0  0  0  0  0  0
   -1.4782   -1.0335   -0.9519 H   0  0  0  0  0  0  0  0  0  0  0  0
   -2.1226    1.9465   -0.5764 H   0  0  0  0  0  0  0  0  0  0  0  0
   -0.9901    1.2836   -1.7692 H   0  0  0  0  0  0  0  0  0  0  0  0
   -2.7196    0.9224   -1.8996 H   0  0  0  0  0  0  0  0  0  0  0  0
   -3.3424    0.3214    1.0739 H   0  0  0  0  0  0  0  0  0  0  0  0
   -3.8560   -0.6699   -0.3069 H   0  0  0  0  0  0  0  0  0  0  0  0
   -2.9503   -1.4102    1.0323 H   0  0  0  0  0  0  0  0  0  0  0  0
    1.6901    0.0336    2.1642 H   0  0  0  0  0  0  0  0  0  0  0  0
    2.8059    0.6748    0.9252 H   0  0  0  0  0  0  0  0  0  0  0  0
    1.9273    2.3396    2.3254 H   0  0  0  0  0  0  0  0  0  0  0  0
  1 10  1  0  0  0  0
  1  2  1  0  0  0  0
  2  3  1  0  0  0  0
  2 13  1  0  0  0  0
  3 15  1  6  0  0  0
  3  4  1  0  0  0  0
  3  8  1  0  0  0  0
  4 17  1  0  0  0  0
  4 16  1  0  0  0  0
  5  7  1  0  0  0  0
  5  4  1  0  0  0  0
  6 19  1  0  0  0  0
  6  5  1  0  0  0  0
  7 24  1  0  0  0  0
  7 22  1  0  0  0  0
  8  9  1  0  0  0  0
  8 25  1  0  0  0  0
  9 27  1  0  0  0  0
 11  1  1  0  0  0  0
 12  1  1  0  0  0  0
 14  2  1  0  0  0  0
 18  5  1  0  0  0  0
 20  6  1  0  0  0  0
 21  6  1  0  0  0  0
 23  7  1  0  0  0  0
 26  8  1  0  0  0  0
M  END
>  <Charge>
0.0

>  <InChI>
1/C8H18O/c1-4-8(6-9)5-7(2)3/h7-9H,4-6H2,1-3H3

>  <Molecular Formula>
C_{8}H_{18}O

>  <Name>
2-ETHYL-4-METHYL-1-PENTANOL

>  <SMILES>
CCC(CC(C)C)CO

>  <logK (DODECANE)>
4.09

>  <mean polarizability>
16.26

>  <dipole moment>
1.41434635944

$$$$
327
 OpenBabel08101817183D

 27 26  0  0  0  0  0  0  0  0999 V2000
    3.4812   -0.0686    0.4791 C   0  0  0  0  0  0  0  0  0  0  0  0
    2.1375    0.5668    0.1186 C   0  0  0  0  0  0  0  0  0  0  0  0
    1.0133   -0.4676    0.0261 C   0  0  0  0  0  0  0  0  0  0  0  0
   -0.3425    0.0384   -0.5157 C   0  0  0  0  0  0  0  0  0  0  0  0
   -0.8837    1.2044    0.3305 C   0  0  0  0  0  0  0  0  0  0  0  0
   -2.2620    1.7273   -0.0754 C   0  0  0  0  0  0  0  0  0  0  0  0
   -1.3431   -1.1329   -0.6270 C   0  0  0  0  0  0  0  0  0  0  0  0
   -1.7835   -1.7895    0.6825 C   0  0  0  0  0  0  0  0  0  0  0  0
   -0.1552    0.5939   -1.8415 O   0  0  0  0  0  0  0  0  0  0  0  0
    3.4326   -0.5888    1.4468 H   0  0  0  0  0  0  0  0  0  0  0  0
    3.7871   -0.8076   -0.2757 H   0  0  0  0  0  0  0  0  0  0  0  0
    4.2772    0.6852    0.5472 H   0  0  0  0  0  0  0  0  0  0  0  0
    2.2188    1.0965   -0.8419 H   0  0  0  0  0  0  0  0  0  0  0  0
    1.8866    1.3284    0.8721 H   0  0  0  0  0  0  0  0  0  0  0  0
    1.3436   -1.2912   -0.6331 H   0  0  0  0  0  0  0  0  0  0  0  0
    0.8573   -0.9222    1.0179 H   0  0  0  0  0  0  0  0  0  0  0  0
   -0.8912    0.8943    1.3868 H   0  0  0  0  0  0  0  0  0  0  0  0
   -0.1559    2.0246    0.2556 H   0  0  0  0  0  0  0  0  0  0  0  0
   -2.5126    2.6298    0.4983 H   0  0  0  0  0  0  0  0  0  0  0  0
   -3.0580    0.9930    0.1093 H   0  0  0  0  0  0  0  0  0  0  0  0
   -2.2822    1.9886   -1.1408 H   0  0  0  0  0  0  0  0  0  0  0  0
   -2.2252   -0.7641   -1.1702 H   0  0  0  0  0  0  0  0  0  0  0  0
   -0.8823   -1.8984   -1.2763 H   0  0  0  0  0  0  0  0  0  0  0  0
   -0.9408   -2.2330    1.2292 H   0  0  0  0  0  0  0  0  0  0  0  0
   -2.5029   -2.5954    0.4835 H   0  0  0  0  0  0  0  0  0  0  0  0
   -2.2754   -1.0707    1.3520 H   0  0  0  0  0  0  0  0  0  0  0  0
    0.0616   -0.1410   -2.4378 H   0  0  0  0  0  0  0  0  0  0  0  0
  1 12  1  0  0  0  0
  1 10  1  0  0  0  0
  2  1  1  0  0  0  0
  2 14  1  0  0  0  0
  3  2  1  0  0  0  0
  3 16  1  0  0  0  0
  4  3  1  0  0  0  0
  4  5  1  0  0  0  0
  5 17  1  0  0  0  0
  6 20  1  0  0  0  0
  6  5  1  0  0  0  0
  6 19  1  0  0  0  0
  7  4  1  0  0  0  0
  7  8  1  0  0  0  0
  8 24  1  0  0  0  0
  8 26  1  0  0  0  0
  9  4  1  0  0  0  0
 11  1  1  0  0  0  0
 13  2  1  0  0  0  0
 15  3  1  0  0  0  0
 18  5  1  0  0  0  0
 21  6  1  0  0  0  0
 22  7  1  0  0  0  0
 23  7  1  0  0  0  0
 25  8  1  0  0  0  0
 27  9  1  0  0  0  0
M  END
>  <Charge>
0.0

>  <InChI>
1/C8H18O/c1-4-7-8(9,5-2)6-3/h9H,4-7H2,1-3H3

>  <Molecular Formula>
C_{8}H_{18}O

>  <Name>
3-ETHYL-3-HEXANOL

>  <SMILES>
CCCC(CC)(CC)O

>  <logK (DODECANE)>
4.2

>  <dipole moment>
1.3421071326

>  <mean polarizability>
16.13

$$$$
328
 OpenBabel08101817183D

 27 26  0  0  1  0  0  0  0  0999 V2000
   -1.5272    1.7619    0.4425 C   0  0  0  0  0  0  0  0  0  0  0  0
   -0.9454    0.5285    1.1403 C   0  0  0  0  0  0  0  0  0  0  0  0
   -0.3102   -0.5504    0.2365 C   0  0  0  0  0  0  0  0  0  0  0  0
   -1.2872   -1.1362   -0.8001 C   0  0  0  0  0  0  0  0  0  0  0  0
   -2.5154   -1.8229   -0.1998 C   0  0  0  0  0  0  0  0  0  0  0  0
    1.0217   -0.1484   -0.4438 C   0  0  2  0  0  0  0  0  0  0  0  0
    2.0773    0.3898    0.5191 C   0  0  0  0  0  0  0  0  0  0  0  0
    3.4671    0.5011   -0.1078 C   0  0  0  0  0  0  0  0  0  0  0  0
    0.8646    0.8448   -1.4756 O   0  0  0  0  0  0  0  0  0  0  0  0
   -1.9513    2.4535    1.1836 H   0  0  0  0  0  0  0  0  0  0  0  0
   -2.3375    1.4960   -0.2512 H   0  0  0  0  0  0  0  0  0  0  0  0
   -0.7644    2.2993   -0.1328 H   0  0  0  0  0  0  0  0  0  0  0  0
   -1.7385    0.0474    1.7337 H   0  0  0  0  0  0  0  0  0  0  0  0
   -0.1948    0.8513    1.8769 H   0  0  0  0  0  0  0  0  0  0  0  0
   -0.0304   -1.3856    0.9060 H   0  0  0  0  0  0  0  0  0  0  0  0
   -0.7368   -1.8665   -1.4174 H   0  0  0  0  0  0  0  0  0  0  0  0
   -1.6258   -0.3444   -1.4891 H   0  0  0  0  0  0  0  0  0  0  0  0
   -3.1564   -1.1155    0.3428 H   0  0  0  0  0  0  0  0  0  0  0  0
   -2.2206   -2.6128    0.5066 H   0  0  0  0  0  0  0  0  0  0  0  0
   -3.1300   -2.2887   -0.9819 H   0  0  0  0  0  0  0  0  0  0  0  0
    1.4264   -1.0742   -0.9047 H   0  0  0  0  0  0  0  0  0  0  0  0
    1.7536    1.3782    0.8788 H   0  0  0  0  0  0  0  0  0  0  0  0
    2.1116   -0.2721    1.3986 H   0  0  0  0  0  0  0  0  0  0  0  0
    4.1928    0.9103    0.6077 H   0  0  0  0  0  0  0  0  0  0  0  0
    3.8364   -0.4828   -0.4317 H   0  0  0  0  0  0  0  0  0  0  0  0
    3.4476    1.1584   -0.9858 H   0  0  0  0  0  0  0  0  0  0  0  0
    0.2730    0.4798   -2.1510 H   0  0  0  0  0  0  0  0  0  0  0  0
  1  2  1  0  0  0  0
  1 10  1  0  0  0  0
  2 13  1  0  0  0  0
  2 14  1  0  0  0  0
  3 15  1  0  0  0  0
  3  2  1  0  0  0  0
  4  5  1  0  0  0  0
  4  3  1  0  0  0  0
  5 18  1  0  0  0  0
  5 19  1  0  0  0  0
  6 21  1  6  0  0  0
  6  3  1  0  0  0  0
  6  7  1  0  0  0  0
  7 22  1  0  0  0  0
  7 23  1  0  0  0  0
  8  7  1  0  0  0  0
  8 24  1  0  0  0  0
  9  6  1  0  0  0  0
 11  1  1  0  0  0  0
 12  1  1  0  0  0  0
 16  4  1  0  0  0  0
 17  4  1  0  0  0  0
 20  5  1  0  0  0  0
 25  8  1  0  0  0  0
 26  8  1  0  0  0  0
 27  9  1  0  0  0  0
M  END
>  <Charge>
0.0

>  <InChI>
1/C8H18O/c1-4-7(5-2)8(9)6-3/h7-9H,4-6H2,1-3H3

>  <Molecular Formula>
C_{8}H_{18}O

>  <Name>
4-ETHYL-3-HEXANOL

>  <SMILES>
CCC(CC)C(CC)O

>  <logK (DODECANE)>
4.32

>  <dipole moment>
1.48165772341

>  <mean polarizability>
16.07

$$$$
329
 OpenBabel08101817183D

 19 18  0  0  0  0  0  0  0  0999 V2000
    2.7507    0.2932   -0.5545 C   0  0  0  0  0  0  0  0  0  0  0  0
    1.7337   -0.5730    0.1871 C   0  0  0  0  0  0  0  0  0  0  0  0
    0.5878    0.2332    0.7985 C   0  0  0  0  0  0  0  0  0  0  0  0
   -0.1972    0.9203   -0.1816 O   0  0  0  0  0  0  0  0  0  0  0  0
   -1.2380    0.1350   -0.7543 C   0  0  0  0  0  0  0  0  0  0  0  0
   -2.5473    0.2846    0.0266 C   0  0  0  0  0  0  0  0  0  0  0  0
   -3.6094   -0.4758   -0.5538 O   0  0  0  0  0  0  0  0  0  0  0  0
    3.5451   -0.3172   -1.0036 H   0  0  0  0  0  0  0  0  0  0  0  0
    3.2264    1.0134    0.1269 H   0  0  0  0  0  0  0  0  0  0  0  0
    2.2666    0.8649   -1.3565 H   0  0  0  0  0  0  0  0  0  0  0  0
    2.2258   -1.1276    1.0027 H   0  0  0  0  0  0  0  0  0  0  0  0
    1.3200   -1.3363   -0.4915 H   0  0  0  0  0  0  0  0  0  0  0  0
    0.9906    1.0182    1.4569 H   0  0  0  0  0  0  0  0  0  0  0  0
   -0.0532   -0.4196    1.4181 H   0  0  0  0  0  0  0  0  0  0  0  0
   -1.3856    0.4860   -1.7857 H   0  0  0  0  0  0  0  0  0  0  0  0
   -0.9519   -0.9329   -0.8086 H   0  0  0  0  0  0  0  0  0  0  0  0
   -2.3913    0.0178    1.0872 H   0  0  0  0  0  0  0  0  0  0  0  0
   -2.8715    1.3328   -0.0049 H   0  0  0  0  0  0  0  0  0  0  0  0
   -3.4013   -1.4168   -0.4457 H   0  0  0  0  0  0  0  0  0  0  0  0
  1  9  1  0  0  0  0
  1  2  1  0  0  0  0
  2  3  1  0  0  0  0
  2 11  1  0  0  0  0
  3 14  1  0  0  0  0
  3 13  1  0  0  0  0
  4  3  1  0  0  0  0
  5  4  1  0  0  0  0
  5  6  1  0  0  0  0
  6 17  1  0  0  0  0
  7 19  1  0  0  0  0
  7  6  1  0  0  0  0
  8  1  1  0  0  0  0
 10  1  1  0  0  0  0
 12  2  1  0  0  0  0
 15  5  1  0  0  0  0
 16  5  1  0  0  0  0
 18  6  1  0  0  0  0
M  END
>  <Charge>
0.0

>  <InChI>
1/C5H12O2/c1-2-4-7-5-3-6/h6H,2-5H2,1H3

>  <Molecular Formula>
C_{5}H_{12}O_{2}

>  <Name>
2-PROPOXYETHANOL

>  <SMILES>
CCCOCCO

>  <logK (2-PROPOXYETHANOL)>
4.815

>  <logK (DODECANE)>
3.37

>  <mean polarizability>
11.46

>  <dipole moment>
2.36839857399

>  <Formula>
C5H12O2

$$$$
330
 OpenBabel08101817183D

 22 21  0  0  0  0  0  0  0  0999 V2000
    2.9911   -0.0478   -1.1241 C   0  0  0  0  0  0  0  0  0  0  0  0
    2.6026    0.5937    0.2104 C   0  0  0  0  0  0  0  0  0  0  0  0
    1.0893    0.7425    0.4224 C   0  0  0  0  0  0  0  0  0  0  0  0
    0.3779   -0.5939    0.6404 C   0  0  0  0  0  0  0  0  0  0  0  0
   -1.0148   -0.4662    0.9240 O   0  0  0  0  0  0  0  0  0  0  0  0
   -1.8143   -0.2300   -0.2256 C   0  0  0  0  0  0  0  0  0  0  0  0
   -3.2682   -0.2594    0.2157 C   0  0  0  0  0  0  0  0  0  0  0  0
   -4.0655    0.0098   -0.9417 O   0  0  0  0  0  0  0  0  0  0  0  0
    4.0819   -0.0862   -1.2441 H   0  0  0  0  0  0  0  0  0  0  0  0
    2.5836    0.5265   -1.9689 H   0  0  0  0  0  0  0  0  0  0  0  0
    2.6168   -1.0762   -1.2134 H   0  0  0  0  0  0  0  0  0  0  0  0
    3.0648    1.5900    0.2771 H   0  0  0  0  0  0  0  0  0  0  0  0
    3.0301    0.0087    1.0418 H   0  0  0  0  0  0  0  0  0  0  0  0
    0.6530    1.2660   -0.4434 H   0  0  0  0  0  0  0  0  0  0  0  0
    0.8971    1.3732    1.3037 H   0  0  0  0  0  0  0  0  0  0  0  0
    0.8090   -1.0979    1.5189 H   0  0  0  0  0  0  0  0  0  0  0  0
    0.5160   -1.2635   -0.2288 H   0  0  0  0  0  0  0  0  0  0  0  0
   -1.6394   -1.0114   -0.9901 H   0  0  0  0  0  0  0  0  0  0  0  0
   -1.5951    0.7487   -0.6895 H   0  0  0  0  0  0  0  0  0  0  0  0
   -3.4230    0.5007    1.0006 H   0  0  0  0  0  0  0  0  0  0  0  0
   -3.4991   -1.2493    0.6451 H   0  0  0  0  0  0  0  0  0  0  0  0
   -4.9939    0.0218   -0.6680 H   0  0  0  0  0  0  0  0  0  0  0  0
  1  2  1  0  0  0  0
  2 12  1  0  0  0  0
  2  3  1  0  0  0  0
  2 13  1  0  0  0  0
  3  4  1  0  0  0  0
  3 15  1  0  0  0  0
  4  5  1  0  0  0  0
  4 16  1  0  0  0  0
  6  7  1  0  0  0  0
  6  5  1  0  0  0  0
  7 21  1  0  0  0  0
  7 20  1  0  0  0  0
  8 22  1  0  0  0  0
  8  7  1  0  0  0  0
  9  1  1  0  0  0  0
 10  1  1  0  0  0  0
 11  1  1  0  0  0  0
 14  3  1  0  0  0  0
 17  4  1  0  0  0  0
 18  6  1  0  0  0  0
 19  6  1  0  0  0  0
M  END
>  <Charge>
0.0

>  <InChI>
1/C6H14O2/c1-2-3-5-8-6-4-7/h7H,2-6H2,1H3

>  <Molecular Formula>
C_{6}H_{14}O_{2}

>  <Name>
2-BUTOXYETHANOL

>  <SMILES>
CCCCOCCO

>  <logK (2-BUTOXYETHANOL)>
5.215

>  <logK (BROMOBENZENE)>
4.45

>  <logK (CHLOROBENZENE)>
4.52

>  <logK (DODECANE)>
3.86

>  <Formula>
C6H14O2

>  <mean polarizability>
13.34

>  <dipole moment>
0.387769781899

$$$$
331
 OpenBabel08101817183D

 25 24  0  0  0  0  0  0  0  0999 V2000
   -3.6948   -0.6586    0.7937 C   0  0  0  0  0  0  0  0  0  0  0  0
   -2.7188    0.5152    0.8995 C   0  0  0  0  0  0  0  0  0  0  0  0
   -1.6161    0.5212   -0.1659 C   0  0  0  0  0  0  0  0  0  0  0  0
   -0.6292   -0.6443   -0.0644 C   0  0  0  0  0  0  0  0  0  0  0  0
    0.5048   -0.5657   -1.0863 C   0  0  0  0  0  0  0  0  0  0  0  0
    1.3376    0.5863   -0.9136 O   0  0  0  0  0  0  0  0  0  0  0  0
    2.3989    0.4080    0.0182 C   0  0  0  0  0  0  0  0  0  0  0  0
    3.6644   -0.1207   -0.6638 C   0  0  0  0  0  0  0  0  0  0  0  0
    4.7508   -0.2615    0.2546 O   0  0  0  0  0  0  0  0  0  0  0  0
   -4.1735   -0.6851   -0.1965 H   0  0  0  0  0  0  0  0  0  0  0  0
   -4.4924   -0.5825    1.5451 H   0  0  0  0  0  0  0  0  0  0  0  0
   -3.1951   -1.6253    0.9455 H   0  0  0  0  0  0  0  0  0  0  0  0
   -3.2830    1.4578    0.8261 H   0  0  0  0  0  0  0  0  0  0  0  0
   -2.2545    0.5193    1.8998 H   0  0  0  0  0  0  0  0  0  0  0  0
   -1.0507    1.4624   -0.0987 H   0  0  0  0  0  0  0  0  0  0  0  0
   -2.0794    0.5130   -1.1680 H   0  0  0  0  0  0  0  0  0  0  0  0
   -0.2036   -0.6832    0.9532 H   0  0  0  0  0  0  0  0  0  0  0  0
   -1.1455   -1.6062   -0.2151 H   0  0  0  0  0  0  0  0  0  0  0  0
    1.1122   -1.4878   -1.0564 H   0  0  0  0  0  0  0  0  0  0  0  0
    0.0896   -0.4802   -2.1021 H   0  0  0  0  0  0  0  0  0  0  0  0
    2.6098    1.3896    0.4664 H   0  0  0  0  0  0  0  0  0  0  0  0
    2.1015   -0.2716    0.8401 H   0  0  0  0  0  0  0  0  0  0  0  0
    3.4498   -1.0712   -1.1844 H   0  0  0  0  0  0  0  0  0  0  0  0
    3.9981    0.6014   -1.4202 H   0  0  0  0  0  0  0  0  0  0  0  0
    4.5188   -0.9538    0.8929 H   0  0  0  0  0  0  0  0  0  0  0  0
  1  2  1  0  0  0  0
  1 12  1  0  0  0  0
  1 11  1  0  0  0  0
  2 14  1  0  0  0  0
  3 15  1  0  0  0  0
  3  4  1  0  0  0  0
  3  2  1  0  0  0  0
  4 17  1  0  0  0  0
  5 19  1  0  0  0  0
  5  6  1  0  0  0  0
  5  4  1  0  0  0  0
  6  7  1  0  0  0  0
  7 21  1  0  0  0  0
  7 22  1  0  0  0  0
  8  7  1  0  0  0  0
  8  9  1  0  0  0  0
  9 25  1  0  0  0  0
 10  1  1  0  0  0  0
 13  2  1  0  0  0  0
 16  3  1  0  0  0  0
 18  4  1  0  0  0  0
 20  5  1  0  0  0  0
 23  8  1  0  0  0  0
 24  8  1  0  0  0  0
M  END
>  <Charge>
0.0

>  <InChI>
1/C7H16O2/c1-2-3-4-6-9-7-5-8/h8H,2-7H2,1H3

>  <Molecular Formula>
C_{7}H_{16}O_{2}

>  <Name>
2-(PENTYLOXY)ETHANOL

>  <SMILES>
CCCCCOCCO

>  <logK (DODECANE)>
4.25

>  <mean polarizability>
15.27

>  <dipole moment>
2.27764029582

$$$$
332
 OpenBabel08101817183D

 17 16  0  0  0  0  0  0  0  0999 V2000
   -0.3556    2.5291   -0.2125 C   0  0  0  0  0  0  0  0  0  0  0  0
    0.5377    1.4017   -0.3371 O   0  0  0  0  0  0  0  0  0  0  0  0
   -0.0734   -0.0171   -0.7555 P   0  0  0  0  0  0  0  0  0  0  0  0
   -0.9436   -0.0775   -1.9414 O   0  0  0  0  0  0  0  0  0  0  0  0
   -0.7737   -0.4658    0.6278 O   0  0  0  0  0  0  0  0  0  0  0  0
   -1.7307   -1.5480    0.5860 C   0  0  0  0  0  0  0  0  0  0  0  0
    1.2438   -0.9039   -0.9114 O   0  0  0  0  0  0  0  0  0  0  0  0
    2.2329   -0.9624    0.1377 C   0  0  0  0  0  0  0  0  0  0  0  0
   -0.9928    2.4137    0.6746 H   0  0  0  0  0  0  0  0  0  0  0  0
    0.2795    3.4130   -0.0993 H   0  0  0  0  0  0  0  0  0  0  0  0
   -0.9769    2.6265   -1.1118 H   0  0  0  0  0  0  0  0  0  0  0  0
   -1.2150   -2.5119    0.4730 H   0  0  0  0  0  0  0  0  0  0  0  0
   -2.2631   -1.5262    1.5424 H   0  0  0  0  0  0  0  0  0  0  0  0
   -2.4320   -1.4065   -0.2452 H   0  0  0  0  0  0  0  0  0  0  0  0
    2.7544   -0.0009    0.2229 H   0  0  0  0  0  0  0  0  0  0  0  0
    2.9404   -1.7457   -0.1524 H   0  0  0  0  0  0  0  0  0  0  0  0
    1.7680   -1.2182    1.0993 H   0  0  0  0  0  0  0  0  0  0  0  0
  1 10  1  0  0  0  0
  1  9  1  0  0  0  0
  2  1  1  0  0  0  0
  3  2  1  0  0  0  0
  3  5  1  0  0  0  0
  4  3  2  0  0  0  0
  6  5  1  0  0  0  0
  6 13  1  0  0  0  0
  7  3  1  0  0  0  0
  7  8  1  0  0  0  0
  8 15  1  0  0  0  0
  8 17  1  0  0  0  0
 11  1  1  0  0  0  0
 12  6  1  0  0  0  0
 14  6  1  0  0  0  0
 16  8  1  0  0  0  0
M  END
>  <Charge>
0.0

>  <InChI>
1/C3H9O4P/c1-5-8(4,6-2)7-3/h1-3H3

>  <Molecular Formula>
C_{3}H_{9}O_{4}P

>  <Name>
TRIMETHYL PHOSPHATE

>  <SMILES>
COP(=O)(OC)OC

>  <logK (CHLOROFORM)>
6.97

>  <logK (DODECANE)>
3.99

>  <mean polarizability>
11.47

>  <dipole moment>
3.53787569554

$$$$
333
 OpenBabel08101817183D

 26 25  0  0  0  0  0  0  0  0999 V2000
    2.7514   -1.2273    1.6530 C   0  0  0  0  0  0  0  0  0  0  0  0
    2.4603   -0.9535    0.1916 C   0  0  0  0  0  0  0  0  0  0  0  0
    1.0632   -1.2280   -0.1257 O   0  0  0  0  0  0  0  0  0  0  0  0
    0.0190   -0.0175   -0.1033 P   0  0  0  0  0  0  0  0  0  0  0  0
    0.1275    0.9259    1.0325 O   0  0  0  0  0  0  0  0  0  0  0  0
   -1.3797   -0.7798   -0.2493 O   0  0  0  0  0  0  0  0  0  0  0  0
   -2.0229   -1.3072    0.9452 C   0  0  0  0  0  0  0  0  0  0  0  0
   -3.4717   -1.5925    0.6143 C   0  0  0  0  0  0  0  0  0  0  0  0
    0.2081    0.6135   -1.5604 O   0  0  0  0  0  0  0  0  0  0  0  0
   -0.3830    1.9173   -1.8405 C   0  0  0  0  0  0  0  0  0  0  0  0
    0.6441    3.0200   -1.6858 C   0  0  0  0  0  0  0  0  0  0  0  0
    3.8198   -1.0658    1.8545 H   0  0  0  0  0  0  0  0  0  0  0  0
    2.1698   -0.5527    2.2928 H   0  0  0  0  0  0  0  0  0  0  0  0
    2.5067   -2.2656    1.9115 H   0  0  0  0  0  0  0  0  0  0  0  0
    3.0346   -1.6159   -0.4690 H   0  0  0  0  0  0  0  0  0  0  0  0
    2.6993    0.0866   -0.0735 H   0  0  0  0  0  0  0  0  0  0  0  0
   -1.9271   -0.5678    1.7529 H   0  0  0  0  0  0  0  0  0  0  0  0
   -1.4934   -2.2244    1.2437 H   0  0  0  0  0  0  0  0  0  0  0  0
   -3.9780   -2.0064    1.4965 H   0  0  0  0  0  0  0  0  0  0  0  0
   -3.9932   -0.6742    0.3171 H   0  0  0  0  0  0  0  0  0  0  0  0
   -3.5527   -2.3200   -0.2031 H   0  0  0  0  0  0  0  0  0  0  0  0
   -0.7513    1.8455   -2.8721 H   0  0  0  0  0  0  0  0  0  0  0  0
   -1.2436    2.0817   -1.1766 H   0  0  0  0  0  0  0  0  0  0  0  0
    0.9903    3.0771   -0.6466 H   0  0  0  0  0  0  0  0  0  0  0  0
    0.1963    3.9863   -1.9570 H   0  0  0  0  0  0  0  0  0  0  0  0
    1.5061    2.8448   -2.3424 H   0  0  0  0  0  0  0  0  0  0  0  0
  1 12  1  0  0  0  0
  1 14  1  0  0  0  0
  1 13  1  0  0  0  0
  2  1  1  0  0  0  0
  3  4  1  0  0  0  0
  3  2  1  0  0  0  0
  4  5  2  0  0  0  0
  6  4  1  0  0  0  0
  6  7  1  0  0  0  0
  7 18  1  0  0  0  0
  7 17  1  0  0  0  0
  8  7  1  0  0  0  0
  8 19  1  0  0  0  0
  9  4  1  0  0  0  0
 10 11  1  0  0  0  0
 10  9  1  0  0  0  0
 10 23  1  0  0  0  0
 11 24  1  0  0  0  0
 15  2  1  0  0  0  0
 16  2  1  0  0  0  0
 20  8  1  0  0  0  0
 21  8  1  0  0  0  0
 22 10  1  0  0  0  0
 25 11  1  0  0  0  0
 26 11  1  0  0  0  0
M  END
>  <Charge>
0.0

>  <InChI>
1/C6H15O4P/c1-4-8-11(7,9-5-2)10-6-3/h4-6H2,1-3H3

>  <Molecular Formula>
C_{6}H_{15}O_{4}P

>  <Name>
TRIETHYLPHOSPHATE

>  <SMILES>
CCOP(=O)(OCC)OCC

>  <logK (CHLOROFORM)>
7.81

>  <logK (DODECANE)>
4.55

>  <mean polarizability>
17.31

>  <dipole moment>
0.678614665891

$$$$
334
 OpenBabel08101817183D

 35 34  0  0  0  0  0  0  0  0999 V2000
   -1.5496    4.4165   -1.2496 C   0  0  0  0  0  0  0  0  0  0  0  0
   -1.8739    3.0067   -0.7543 C   0  0  0  0  0  0  0  0  0  0  0  0
   -0.6711    2.0872   -0.8591 C   0  0  0  0  0  0  0  0  0  0  0  0
   -1.0496    0.7739   -0.3665 O   0  0  0  0  0  0  0  0  0  0  0  0
   -0.0383   -0.4504   -0.5670 P   0  0  0  0  0  0  0  0  0  0  0  0
    0.4836   -0.7044   -1.9217 O   0  0  0  0  0  0  0  0  0  0  0  0
    1.0801   -0.1147    0.5456 O   0  0  0  0  0  0  0  0  0  0  0  0
    2.3881   -0.7444    0.4342 C   0  0  0  0  0  0  0  0  0  0  0  0
    3.4021    0.2035   -0.1836 C   0  0  0  0  0  0  0  0  0  0  0  0
    4.7981   -0.4188   -0.2311 C   0  0  0  0  0  0  0  0  0  0  0  0
   -0.8917   -1.6746   -0.0049 O   0  0  0  0  0  0  0  0  0  0  0  0
   -1.4928   -1.6445    1.3191 C   0  0  0  0  0  0  0  0  0  0  0  0
   -2.0240   -3.0299    1.6404 C   0  0  0  0  0  0  0  0  0  0  0  0
   -3.1413   -3.4924    0.7062 C   0  0  0  0  0  0  0  0  0  0  0  0
   -1.2353    4.4092   -2.3029 H   0  0  0  0  0  0  0  0  0  0  0  0
   -2.4264    5.0714   -1.1696 H   0  0  0  0  0  0  0  0  0  0  0  0
   -0.7396    4.8729   -0.6631 H   0  0  0  0  0  0  0  0  0  0  0  0
   -2.6997    2.5764   -1.3396 H   0  0  0  0  0  0  0  0  0  0  0  0
   -2.2086    3.0379    0.2933 H   0  0  0  0  0  0  0  0  0  0  0  0
   -0.3327    1.9910   -1.9018 H   0  0  0  0  0  0  0  0  0  0  0  0
    0.1674    2.4630   -0.2513 H   0  0  0  0  0  0  0  0  0  0  0  0
    2.3082   -1.6662   -0.1609 H   0  0  0  0  0  0  0  0  0  0  0  0
    2.6729   -1.0154    1.4612 H   0  0  0  0  0  0  0  0  0  0  0  0
    3.0633    0.4603   -1.1975 H   0  0  0  0  0  0  0  0  0  0  0  0
    3.4189    1.1351    0.4023 H   0  0  0  0  0  0  0  0  0  0  0  0
    4.8059   -1.3361   -0.8364 H   0  0  0  0  0  0  0  0  0  0  0  0
    5.5229    0.2758   -0.6740 H   0  0  0  0  0  0  0  0  0  0  0  0
    5.1592   -0.6785    0.7746 H   0  0  0  0  0  0  0  0  0  0  0  0
   -0.7318   -1.3310    2.0489 H   0  0  0  0  0  0  0  0  0  0  0  0
   -2.3027   -0.8991    1.3136 H   0  0  0  0  0  0  0  0  0  0  0  0
   -2.3840   -3.0038    2.6813 H   0  0  0  0  0  0  0  0  0  0  0  0
   -1.1864   -3.7436    1.6174 H   0  0  0  0  0  0  0  0  0  0  0  0
   -4.0013   -2.8086    0.7491 H   0  0  0  0  0  0  0  0  0  0  0  0
   -3.4960   -4.4942    0.9812 H   0  0  0  0  0  0  0  0  0  0  0  0
   -2.7942   -3.5297   -0.3338 H   0  0  0  0  0  0  0  0  0  0  0  0
  1 16  1  0  0  0  0
  1  2  1  0  0  0  0
  1 17  1  0  0  0  0
  2 19  1  0  0  0  0
  3  2  1  0  0  0  0
  3  4  1  0  0  0  0
  3 21  1  0  0  0  0
  5  4  1  0  0  0  0
  5 11  1  0  0  0  0
  5  7  1  0  0  0  0
  6  5  2  0  0  0  0
  8  7  1  0  0  0  0
  8 23  1  0  0  0  0
  9 25  1  0  0  0  0
  9  8  1  0  0  0  0
 10  9  1  0  0  0  0
 10 28  1  0  0  0  0
 11 12  1  0  0  0  0
 12 13  1  0  0  0  0
 12 29  1  0  0  0  0
 13 31  1  0  0  0  0
 14 33  1  0  0  0  0
 14 34  1  0  0  0  0
 14 13  1  0  0  0  0
 15  1  1  0  0  0  0
 18  2  1  0  0  0  0
 20  3  1  0  0  0  0
 22  8  1  0  0  0  0
 24  9  1  0  0  0  0
 26 10  1  0  0  0  0
 27 10  1  0  0  0  0
 30 12  1  0  0  0  0
 32 13  1  0  0  0  0
 35 14  1  0  0  0  0
M  END
>  <Charge>
0.0

>  <InChI>
1/C9H21O4P/c1-4-7-11-14(10,12-8-5-2)13-9-6-3/h4-9H2,1-3H3

>  <Molecular Formula>
C_{9}H_{21}O_{4}P

>  <Name>
PROPYL PHOSPHATE

>  <SMILES>
CCCOP(=O)(OCCC)OCCC

>  <logK (CHLOROFORM)>
9.26

>  <logK (DODECANE)>
6.01

>  <dipole moment>
3.40132341601

>  <mean polarizability>
23.1

$$$$
335
 OpenBabel08101817183D

 44 43  0  0  0  0  0  0  0  0999 V2000
    1.4329    4.6428   -0.4821 C   0  0  0  0  0  0  0  0  0  0  0  0
   -0.0404    4.3184   -0.2215 C   0  0  0  0  0  0  0  0  0  0  0  0
   -0.4866    2.9373   -0.7209 C   0  0  0  0  0  0  0  0  0  0  0  0
    0.1456    1.7906    0.0487 C   0  0  0  0  0  0  0  0  0  0  0  0
   -0.3622    0.5414   -0.4980 O   0  0  0  0  0  0  0  0  0  0  0  0
   -0.2221   -0.7932    0.3742 P   0  0  0  0  0  0  0  0  0  0  0  0
   -0.5508   -0.6660    1.8113 O   0  0  0  0  0  0  0  0  0  0  0  0
    1.2698   -1.2554    0.0278 O   0  0  0  0  0  0  0  0  0  0  0  0
    1.8458   -2.3680    0.7699 C   0  0  0  0  0  0  0  0  0  0  0  0
    3.3062   -2.5071    0.3807 C   0  0  0  0  0  0  0  0  0  0  0  0
    4.1829   -1.3210    0.7880 C   0  0  0  0  0  0  0  0  0  0  0  0
    5.6448   -1.5002    0.3801 C   0  0  0  0  0  0  0  0  0  0  0  0
   -1.0972   -1.8418   -0.4568 O   0  0  0  0  0  0  0  0  0  0  0  0
   -2.5184   -1.9822   -0.1710 C   0  0  0  0  0  0  0  0  0  0  0  0
   -3.3555   -1.2490   -1.2088 C   0  0  0  0  0  0  0  0  0  0  0  0
   -4.8652   -1.4355   -1.0026 C   0  0  0  0  0  0  0  0  0  0  0  0
   -5.4212   -0.7560    0.2515 C   0  0  0  0  0  0  0  0  0  0  0  0
    1.6724    4.5580   -1.5520 H   0  0  0  0  0  0  0  0  0  0  0  0
    1.6723    5.6677   -0.1687 H   0  0  0  0  0  0  0  0  0  0  0  0
    2.1086    3.9706    0.0632 H   0  0  0  0  0  0  0  0  0  0  0  0
   -0.2537    4.4031    0.8568 H   0  0  0  0  0  0  0  0  0  0  0  0
   -0.6674    5.0777   -0.7122 H   0  0  0  0  0  0  0  0  0  0  0  0
   -0.2449    2.8290   -1.7901 H   0  0  0  0  0  0  0  0  0  0  0  0
   -1.5796    2.8482   -0.6322 H   0  0  0  0  0  0  0  0  0  0  0  0
    1.2411    1.7865   -0.0527 H   0  0  0  0  0  0  0  0  0  0  0  0
   -0.1094    1.8413    1.1179 H   0  0  0  0  0  0  0  0  0  0  0  0
    1.2849   -3.2808    0.5192 H   0  0  0  0  0  0  0  0  0  0  0  0
    1.7306   -2.1681    1.8459 H   0  0  0  0  0  0  0  0  0  0  0  0
    3.6833   -3.4284    0.8551 H   0  0  0  0  0  0  0  0  0  0  0  0
    3.3715   -2.6683   -0.7072 H   0  0  0  0  0  0  0  0  0  0  0  0
    4.1141   -1.1804    1.8790 H   0  0  0  0  0  0  0  0  0  0  0  0
    3.7804   -0.4039    0.3336 H   0  0  0  0  0  0  0  0  0  0  0  0
    5.7422   -1.6056   -0.7101 H   0  0  0  0  0  0  0  0  0  0  0  0
    6.2561   -0.6409    0.6862 H   0  0  0  0  0  0  0  0  0  0  0  0
    6.0813   -2.3998    0.8384 H   0  0  0  0  0  0  0  0  0  0  0  0
   -2.7096   -1.6289    0.8514 H   0  0  0  0  0  0  0  0  0  0  0  0
   -2.7166   -3.0629   -0.2063 H   0  0  0  0  0  0  0  0  0  0  0  0
   -3.1030   -0.1778   -1.1848 H   0  0  0  0  0  0  0  0  0  0  0  0
   -3.0682   -1.6191   -2.2043 H   0  0  0  0  0  0  0  0  0  0  0  0
   -5.1017   -2.5124   -0.9777 H   0  0  0  0  0  0  0  0  0  0  0  0
   -5.3838   -1.0363   -1.8871 H   0  0  0  0  0  0  0  0  0  0  0  0
   -6.5122   -0.8680    0.3103 H   0  0  0  0  0  0  0  0  0  0  0  0
   -4.9996   -1.1759    1.1745 H   0  0  0  0  0  0  0  0  0  0  0  0
   -5.1973    0.3204    0.2472 H   0  0  0  0  0  0  0  0  0  0  0  0
  1  2  1  0  0  0  0
  1 19  1  0  0  0  0
  1 20  1  0  0  0  0
  2 21  1  0  0  0  0
  3 24  1  0  0  0  0
  3  2  1  0  0  0  0
  3  4  1  0  0  0  0
  4 26  1  0  0  0  0
  5  4  1  0  0  0  0
  5  6  1  0  0  0  0
  6  7  2  0  0  0  0
  8  6  1  0  0  0  0
  8  9  1  0  0  0  0
  9 28  1  0  0  0  0
 10  9  1  0  0  0  0
 10 11  1  0  0  0  0
 10 29  1  0  0  0  0
 11 31  1  0  0  0  0
 12 34  1  0  0  0  0
 12 11  1  0  0  0  0
 12 35  1  0  0  0  0
 13 14  1  0  0  0  0
 13  6  1  0  0  0  0
 14 36  1  0  0  0  0
 15 38  1  0  0  0  0
 15 16  1  0  0  0  0
 15 14  1  0  0  0  0
 16 40  1  0  0  0  0
 16 17  1  0  0  0  0
 17 42  1  0  0  0  0
 17 43  1  0  0  0  0
 18  1  1  0  0  0  0
 22  2  1  0  0  0  0
 23  3  1  0  0  0  0
 25  4  1  0  0  0  0
 27  9  1  0  0  0  0
 30 10  1  0  0  0  0
 32 11  1  0  0  0  0
 33 12  1  0  0  0  0
 37 14  1  0  0  0  0
 39 15  1  0  0  0  0
 41 16  1  0  0  0  0
 44 17  1  0  0  0  0
M  END
>  <Charge>
0.0

>  <InChI>
1/C12H27O4P/c1-4-7-10-14-17(13,15-11-8-5-2)16-12-9-6-3/h4-12H2,1-3H3

>  <Molecular Formula>
C_{12}H_{27}O_{4}P

>  <Name>
TRIBUTYL PHOSPHATE

>  <SMILES>
CCCCOP(=O)(OCCCC)OCCCC

>  <logK (DODECANE)>
7.4

>  <logK (TRIBUTYL PHOSPHATE)>
7.78

>  <Formula>
C12H27O4P

>  <dipole moment>
1.27145990528

>  <mean polarizability>
28.77

$$$$
336
 OpenBabel08101817183D

  2  1  0  0  0  0  0  0  0  0999 V2000
    1.0031    0.0000   -0.0000 Cl  0  0  0  0  0  0  0  0  0  0  0  0
   -1.0031    0.0000    0.0000 Cl  0  0  0  0  0  0  0  0  0  0  0  0
  1  2  1  0  0  0  0
M  END
>  <Charge>
0.0

>  <InChI>
1/Cl2/c1-2

>  <Molecular Formula>
Cl_{2}

>  <Name>
CHLORINE

>  <SMILES>
ClCl

>  <logK (2,2,4-TRIMETHYLPENTANE)>
1.382

>  <logK (ACETIC ACID)>
1.472

>  <logK (CARBON TETRACHLORIDE)>
1.39

>  <logK (ETHYLBENZENE)>
1.609

>  <logK (P-XYLENE)>
1.535

>  <logK (TOLUENE)>
1.669

>  <mean polarizability>
4.46

>  <dipole moment>
1.30496772912e-12

$$$$
337
 OpenBabel08101817183D

  7  6  0  0  0  0  0  0  0  0999 V2000
   -0.9505    0.0466    0.0069 C   0  0  0  0  0  0  0  0  0  0  0  0
    0.5006   -0.0245   -0.0036 C   0  0  0  0  0  0  0  0  0  0  0  0
    1.7089   -0.0837   -0.0124 C   0  0  0  0  0  0  0  0  0  0  0  0
   -1.3596   -0.3648    0.9403 H   0  0  0  0  0  0  0  0  0  0  0  0
   -1.2959    1.0862   -0.0823 H   0  0  0  0  0  0  0  0  0  0  0  0
   -1.3802   -0.5235   -0.8287 H   0  0  0  0  0  0  0  0  0  0  0  0
    2.7767   -0.1361   -0.0202 H   0  0  0  0  0  0  0  0  0  0  0  0
  1  4  1  0  0  0  0
  2  1  1  0  0  0  0
  3  2  3  0  0  0  0
  5  1  1  0  0  0  0
  6  1  1  0  0  0  0
  7  3  1  0  0  0  0
M  END
>  <Charge>
0.0

>  <InChI>
1/C3H4/c1-3-2/h1H,2H3

>  <Molecular Formula>
C_{3}H_{4}

>  <Name>
PROPYNE

>  <SMILES>
CC#C

>  <logK (1,4-DIOXANE)>
1.8

>  <logK (2,2,4-TRIMETHYLPENTANE)>
1.216

>  <logK (ACETONE)>
1.82

>  <logK (DIMETHYLFORMAMIDE)>
1.83

>  <logK (HEXADECANE)>
1.025

>  <logK (METHYL ACETATE)>
1.84

>  <mean polarizability>
5.3

>  <dipole moment>
0.879698379177

$$$$
338
 OpenBabel08101817183D

 10  9  0  0  0  0  0  0  0  0999 V2000
   -1.1277    0.6717   -0.3491 C   0  0  0  0  0  0  0  0  0  0  0  0
   -0.3539   -0.5801    0.0962 C   0  0  0  0  0  0  0  0  0  0  0  0
    1.0924   -0.4101    0.0460 C   0  0  0  0  0  0  0  0  0  0  0  0
    2.2909   -0.2462   -0.0035 C   0  0  0  0  0  0  0  0  0  0  0  0
   -0.8751    0.9399   -1.3823 H   0  0  0  0  0  0  0  0  0  0  0  0
   -2.2091    0.4913   -0.2927 H   0  0  0  0  0  0  0  0  0  0  0  0
   -0.8859    1.5286    0.2916 H   0  0  0  0  0  0  0  0  0  0  0  0
   -0.6463   -0.8528    1.1229 H   0  0  0  0  0  0  0  0  0  0  0  0
   -0.6353   -1.4366   -0.5372 H   0  0  0  0  0  0  0  0  0  0  0  0
    3.3499   -0.1057   -0.0459 H   0  0  0  0  0  0  0  0  0  0  0  0
  1  6  1  0  0  0  0
  1  2  1  0  0  0  0
  1  7  1  0  0  0  0
  2  8  1  0  0  0  0
  3  2  1  0  0  0  0
  4  3  3  0  0  0  0
  5  1  1  0  0  0  0
  9  2  1  0  0  0  0
 10  4  1  0  0  0  0
M  END
>  <Charge>
0.0

>  <InChI>
1/C4H6/c1-3-4-2/h1H,4H2,2H3

>  <Molecular Formula>
C_{4}H_{6}

>  <Name>
BUT-1-YNE

>  <SMILES>
CCC#C

>  <logK (1,4-DIOXANE)>
2.2

>  <logK (2,2,4-TRIMETHYLPENTANE)>
1.73

>  <logK (ACETONE)>
2.19

>  <logK (DIMETHYLFORMAMIDE)>
2.14

>  <logK (HEXADECANE)>
1.52

>  <logK (METHYL ACETATE)>
2.22

>  <mean polarizability>
7.28

>  <dipole moment>
0.885430888506

$$$$
339
 OpenBabel08101817183D

  8  7  0  0  0  0  0  0  0  0999 V2000
   -1.4242   -0.3045    0.3020 C   0  0  0  0  0  0  0  0  0  0  0  0
   -0.4136    0.5257   -0.0075 C   0  0  0  0  0  0  0  0  0  0  0  0
    0.9339    0.1242   -0.1864 C   0  0  0  0  0  0  0  0  0  0  0  0
    2.0977   -0.1818   -0.3471 C   0  0  0  0  0  0  0  0  0  0  0  0
   -1.2622   -1.3729    0.4383 H   0  0  0  0  0  0  0  0  0  0  0  0
   -2.4374    0.0748    0.4245 H   0  0  0  0  0  0  0  0  0  0  0  0
   -0.6151    1.5933   -0.1366 H   0  0  0  0  0  0  0  0  0  0  0  0
    3.1209   -0.4590   -0.4873 H   0  0  0  0  0  0  0  0  0  0  0  0
  1  6  1  0  0  0  0
  1  5  1  0  0  0  0
  2  1  2  0  0  0  0
  3  2  1  0  0  0  0
  4  3  3  0  0  0  0
  7  2  1  0  0  0  0
  8  4  1  0  0  0  0
M  END
>  <Charge>
0.0

>  <InChI>
1/C4H4/c1-3-4-2/h1,4H,2H2

>  <Molecular Formula>
C_{4}H_{4}

>  <Name>
VINYLACETYLENE

>  <SMILES>
C=CC#C

>  <logK (1,4-DIOXANE)>
2.35

>  <logK (2,2,4-TRIMETHYLPENTANE)>
1.622

>  <logK (ACETONE)>
2.34

>  <logK (DIMETHYLFORMAMIDE)>
2.43

>  <logK (METHYL ACETATE)>
2.34

>  <logK (P-XYLENE)>
2.249

>  <mean polarizability>
7.5

>  <dipole moment>
0.383240550383

$$$$
340
 OpenBabel08101817183D

 12 11  0  0  0  0  0  0  0  0999 V2000
   -1.6018   -0.3523    0.1452 C   0  0  0  0  0  0  0  0  0  0  0  0
   -0.3834    0.5456   -0.0751 C   0  0  0  0  0  0  0  0  0  0  0  0
    0.9273   -0.1945    0.1801 C   0  0  0  0  0  0  0  0  0  0  0  0
    2.3358    0.9486   -0.1043 S   0  0  0  0  0  0  0  0  0  0  0  0
   -1.6384   -0.7297    1.1770 H   0  0  0  0  0  0  0  0  0  0  0  0
   -2.5349    0.1949   -0.0425 H   0  0  0  0  0  0  0  0  0  0  0  0
   -1.5841   -1.2216   -0.5273 H   0  0  0  0  0  0  0  0  0  0  0  0
   -0.3852    0.9339   -1.1052 H   0  0  0  0  0  0  0  0  0  0  0  0
   -0.4390    1.4226    0.5880 H   0  0  0  0  0  0  0  0  0  0  0  0
    1.0193   -1.0536   -0.4977 H   0  0  0  0  0  0  0  0  0  0  0  0
    0.9646   -0.5599    1.2150 H   0  0  0  0  0  0  0  0  0  0  0  0
    3.3198    0.0659    0.1806 H   0  0  0  0  0  0  0  0  0  0  0  0
  1  5  1  0  0  0  0
  2  1  1  0  0  0  0
  2  3  1  0  0  0  0
  2  9  1  0  0  0  0
  3 11  1  0  0  0  0
  4  3  1  0  0  0  0
  4 12  1  0  0  0  0
  6  1  1  0  0  0  0
  7  1  1  0  0  0  0
  8  2  1  0  0  0  0
 10  3  1  0  0  0  0
M  END
>  <Charge>
0.0

>  <InChI>
1/C3H8S/c1-2-3-4/h4H,2-3H2,1H3

>  <Molecular Formula>
C_{3}H_{8}S

>  <Name>
1-PROPANETHIOL

>  <SMILES>
CCCS

>  <logK (2,2,4-TRIMETHYLPENTANE)>
2.771

>  <logK (HEXADECANE)>
2.685

>  <mean polarizability>
9.26

>  <dipole moment>
1.62006106074

$$$$
341
 OpenBabel08101817183D

 16 16  0  0  0  0  0  0  0  0999 V2000
   -1.9366   -0.8018   -0.3680 C   0  0  0  0  0  0  0  0  0  0  0  0
   -0.5243   -0.3489   -0.1107 C   0  0  0  0  0  0  0  0  0  0  0  0
    0.5364   -1.2577   -0.0228 C   0  0  0  0  0  0  0  0  0  0  0  0
    1.8448   -0.8360    0.2156 C   0  0  0  0  0  0  0  0  0  0  0  0
    2.1082    0.5265    0.3713 C   0  0  0  0  0  0  0  0  0  0  0  0
    1.0726    1.4547    0.2890 C   0  0  0  0  0  0  0  0  0  0  0  0
   -0.2334    1.0191    0.0497 C   0  0  0  0  0  0  0  0  0  0  0  0
   -1.2116    1.9805   -0.0209 O   0  0  0  0  0  0  0  0  0  0  0  0
   -2.6185   -0.5226    0.4525 H   0  0  0  0  0  0  0  0  0  0  0  0
   -2.3469   -0.3751   -1.2985 H   0  0  0  0  0  0  0  0  0  0  0  0
   -1.9833   -1.8925   -0.4670 H   0  0  0  0  0  0  0  0  0  0  0  0
    0.3234   -2.3213   -0.1454 H   0  0  0  0  0  0  0  0  0  0  0  0
    2.6512   -1.5656    0.2792 H   0  0  0  0  0  0  0  0  0  0  0  0
    3.1252    0.8716    0.5581 H   0  0  0  0  0  0  0  0  0  0  0  0
    1.2558    2.5223    0.4074 H   0  0  0  0  0  0  0  0  0  0  0  0
   -2.0633    1.5465   -0.1894 H   0  0  0  0  0  0  0  0  0  0  0  0
  1  2  1  0  0  0  0
  1  9  1  0  0  0  0
  2  3  2  0  0  0  0
  2  7  1  0  0  0  0
  3  4  1  0  0  0  0
  4 13  1  0  0  0  0
  4  5  2  0  0  0  0
  5 14  1  0  0  0  0
  6  5  1  0  0  0  0
  6 15  1  0  0  0  0
  7  6  2  0  0  0  0
  8  7  1  0  0  0  0
 10  1  1  0  0  0  0
 11  1  1  0  0  0  0
 12  3  1  0  0  0  0
 16  8  1  0  0  0  0
M  END
>  <Charge>
0.0

>  <InChI>
1/C7H8O/c1-6-4-2-3-5-7(6)8/h2-5,8H,1H3

>  <Molecular Formula>
C_{7}H_{8}O

>  <Name>
2-METHYLPHENOL

>  <SMILES>
Cc1ccccc1O

>  <logK (2,2,4-TRIMETHYLPENTANE)>
4.163

>  <logK (BROMOBENZENE)>
5.33

>  <logK (CARBON TETRACHLORIDE)>
4.98

>  <logK (CHLOROFORM)>
5.54

>  <logK (HEXADECANE)>
4.242

>  <logK (IODOBENZENE)>
5.24

>  <mean polarizability>
13.08

>  <dipole moment>
1.70007297655

$$$$
342
 OpenBabel08101817183D

 17 18  0  0  0  0  0  0  0  0999 V2000
    2.3345    0.6136    0.0377 C   0  0  0  0  0  0  0  0  0  0  0  0
    2.3421   -0.8021    0.0250 C   0  0  0  0  0  0  0  0  0  0  0  0
    1.1598   -1.5104    0.0023 C   0  0  0  0  0  0  0  0  0  0  0  0
   -0.0858   -0.8318   -0.0087 C   0  0  0  0  0  0  0  0  0  0  0  0
   -0.0931    0.6040    0.0044 C   0  0  0  0  0  0  0  0  0  0  0  0
    1.1408    1.3029    0.0277 C   0  0  0  0  0  0  0  0  0  0  0  0
   -1.3534    1.2506   -0.0071 C   0  0  0  0  0  0  0  0  0  0  0  0
   -2.5008    0.4909   -0.0299 C   0  0  0  0  0  0  0  0  0  0  0  0
   -2.3830   -0.9208   -0.0414 C   0  0  0  0  0  0  0  0  0  0  0  0
   -1.2339   -1.5724   -0.0316 N   0  0  0  0  0  0  0  0  0  0  0  0
    3.2790    1.1573    0.0556 H   0  0  0  0  0  0  0  0  0  0  0  0
    3.2940   -1.3333    0.0329 H   0  0  0  0  0  0  0  0  0  0  0  0
    1.1432   -2.6000   -0.0079 H   0  0  0  0  0  0  0  0  0  0  0  0
    1.1282    2.3944    0.0375 H   0  0  0  0  0  0  0  0  0  0  0  0
   -1.3970    2.3414    0.0024 H   0  0  0  0  0  0  0  0  0  0  0  0
   -3.4875    0.9530   -0.0393 H   0  0  0  0  0  0  0  0  0  0  0  0
   -3.2869   -1.5371   -0.0597 H   0  0  0  0  0  0  0  0  0  0  0  0
  1 11  1  0  0  0  0
  2 12  1  0  0  0  0
  2  1  2  0  0  0  0
  3  2  1  0  0  0  0
  4  3  2  0  0  0  0
  4  5  1  0  0  0  0
  5  6  2  0  0  0  0
  6 14  1  0  0  0  0
  6  1  1  0  0  0  0
  7 15  1  0  0  0  0
  7  5  1  0  0  0  0
  8  7  2  0  0  0  0
  9 10  2  0  0  0  0
  9  8  1  0  0  0  0
 10  4  1  0  0  0  0
 13  3  1  0  0  0  0
 16  8  1  0  0  0  0
 17  9  1  0  0  0  0
M  END
>  <Charge>
0.0

>  <InChI>
1/C9H7N/c1-2-6-9-8(4-1)5-3-7-10-9/h1-7H

>  <Molecular Formula>
C_{9}H_{7}N

>  <Name>
LEUCOLINE

>  <SMILES>
c1ccc2c(c1)cccn2

>  <logK (2,2,4-TRIMETHYLPENTANE)>
5.234

>  <logK (CHLOROFORM)>
6.98

>  <mean polarizability>
17.03

>  <dipole moment>
2.03685325566

$$$$
343
 OpenBabel08101817183D

 18 18  0  0  0  0  0  0  0  0999 V2000
    3.4477   -0.0386    0.2818 C   0  0  0  0  0  0  0  0  0  0  0  0
    2.0572    0.3367    0.2814 O   0  0  0  0  0  0  0  0  0  0  0  0
    1.2019   -0.6501   -0.1020 C   0  0  0  0  0  0  0  0  0  0  0  0
    1.5732   -1.7646   -0.4212 O   0  0  0  0  0  0  0  0  0  0  0  0
   -0.2201   -0.2018   -0.0824 C   0  0  0  0  0  0  0  0  0  0  0  0
   -0.5966    1.0960    0.2942 C   0  0  0  0  0  0  0  0  0  0  0  0
   -1.9426    1.4582    0.2935 C   0  0  0  0  0  0  0  0  0  0  0  0
   -2.9185    0.5316   -0.0815 C   0  0  0  0  0  0  0  0  0  0  0  0
   -2.5467   -0.7621   -0.4572 C   0  0  0  0  0  0  0  0  0  0  0  0
   -1.2031   -1.1284   -0.4580 C   0  0  0  0  0  0  0  0  0  0  0  0
    3.6216   -0.8732    0.9721 H   0  0  0  0  0  0  0  0  0  0  0  0
    3.9907    0.8527    0.6089 H   0  0  0  0  0  0  0  0  0  0  0  0
    3.7663   -0.3390   -0.7240 H   0  0  0  0  0  0  0  0  0  0  0  0
    0.1678    1.8135    0.5853 H   0  0  0  0  0  0  0  0  0  0  0  0
   -2.2319    2.4674    0.5866 H   0  0  0  0  0  0  0  0  0  0  0  0
   -3.9704    0.8183   -0.0809 H   0  0  0  0  0  0  0  0  0  0  0  0
   -3.3073   -1.4858   -0.7499 H   0  0  0  0  0  0  0  0  0  0  0  0
   -0.8892   -2.1308   -0.7468 H   0  0  0  0  0  0  0  0  0  0  0  0
  1 12  1  0  0  0  0
  1 11  1  0  0  0  0
  2  1  1  0  0  0  0
  3  5  1  0  0  0  0
  3  2  1  0  0  0  0
  4  3  2  0  0  0  0
  5  6  2  0  0  0  0
  6 14  1  0  0  0  0
  7  6  1  0  0  0  0
  7 15  1  0  0  0  0
  8 16  1  0  0  0  0
  8  7  2  0  0  0  0
  9  8  1  0  0  0  0
 10  9  2  0  0  0  0
 10  5  1  0  0  0  0
 13  1  1  0  0  0  0
 17  9  1  0  0  0  0
 18 10  1  0  0  0  0
M  END
>  <Charge>
0.0

>  <InChI>
1/C8H8O2/c1-10-8(9)7-5-3-2-4-6-7/h2-6H,1H3

>  <Molecular Formula>
C_{8}H_{8}O_{2}

>  <Name>
METHYLBENZOATE

>  <SMILES>
COC(=O)c1ccccc1

>  <logK (2,2,4-TRIMETHYLPENTANE)>
4.918

>  <logK (CARBON TETRACHLORIDE)>
5.01

>  <logK (CHLOROFORM)>
5.68

>  <logK (HEXADECANE)>
4.634

>  <mean polarizability>
15.59

>  <dipole moment>
1.92306597038

$$$$
344
 OpenBabel08101817183D

 14 14  0  0  0  0  0  0  0  0999 V2000
   -1.9811   -0.3923   -0.0513 C   0  0  0  0  0  0  0  0  0  0  0  0
   -0.5058   -0.1060   -0.0126 C   0  0  0  0  0  0  0  0  0  0  0  0
    0.4433   -1.1251    0.1165 C   0  0  0  0  0  0  0  0  0  0  0  0
    1.8012   -0.8021    0.1470 C   0  0  0  0  0  0  0  0  0  0  0  0
    2.2744    0.4482    0.0592 N   0  0  0  0  0  0  0  0  0  0  0  0
    1.3614    1.4241   -0.0647 C   0  0  0  0  0  0  0  0  0  0  0  0
   -0.0137    1.2028   -0.1047 C   0  0  0  0  0  0  0  0  0  0  0  0
   -2.5032    0.1200    0.7693 H   0  0  0  0  0  0  0  0  0  0  0  0
   -2.4274   -0.0320   -0.9891 H   0  0  0  0  0  0  0  0  0  0  0  0
   -2.1855   -1.4663    0.0327 H   0  0  0  0  0  0  0  0  0  0  0  0
    0.1292   -2.1672    0.1931 H   0  0  0  0  0  0  0  0  0  0  0  0
    2.5500   -1.5926    0.2477 H   0  0  0  0  0  0  0  0  0  0  0  0
    1.7550    2.4417   -0.1357 H   0  0  0  0  0  0  0  0  0  0  0  0
   -0.6979    2.0469   -0.2072 H   0  0  0  0  0  0  0  0  0  0  0  0
  1  2  1  0  0  0  0
  1 10  1  0  0  0  0
  1  8  1  0  0  0  0
  2  3  2  0  0  0  0
  3  4  1  0  0  0  0
  3 11  1  0  0  0  0
  4 12  1  0  0  0  0
  5  4  2  0  0  0  0
  6  5  1  0  0  0  0
  7  6  2  0  0  0  0
  7  2  1  0  0  0  0
  9  1  1  0  0  0  0
 13  6  1  0  0  0  0
 14  7  1  0  0  0  0
M  END
>  <Charge>
0.0

>  <InChI>
1/C6H7N/c1-6-2-4-7-5-3-6/h2-5H,1H3

>  <Molecular Formula>
C_{6}H_{7}N

>  <Name>
4-PICOLINE

>  <SMILES>
Cc1ccncc1

>  <logK (2,2,4-TRIMETHYLPENTANE)>
3.63

>  <logK (CARBON TETRACHLORIDE)>
4.46

>  <logK (CHLOROFORM)>
5.5

>  <logK (HEXADECANE)>
3.593

>  <mean polarizability>
11.5

>  <dipole moment>
2.77035072984

$$$$
345
 OpenBabel08101817183D

 17 17  0  0  0  0  0  0  0  0999 V2000
    2.3026   -1.2764   -0.0192 C   0  0  0  0  0  0  0  0  0  0  0  0
    1.1305   -0.3324    0.0246 C   0  0  0  0  0  0  0  0  0  0  0  0
    1.3165    1.0462    0.1946 C   0  0  0  0  0  0  0  0  0  0  0  0
    0.1994    1.8764    0.2283 C   0  0  0  0  0  0  0  0  0  0  0  0
   -1.0658    1.3118    0.0922 C   0  0  0  0  0  0  0  0  0  0  0  0
   -1.1738   -0.0754   -0.0744 C   0  0  0  0  0  0  0  0  0  0  0  0
   -0.0931   -0.8764   -0.1068 N   0  0  0  0  0  0  0  0  0  0  0  0
   -2.5168   -0.7390   -0.2261 C   0  0  0  0  0  0  0  0  0  0  0  0
    2.9850   -1.0236   -0.8435 H   0  0  0  0  0  0  0  0  0  0  0  0
    1.9475   -2.3026   -0.1578 H   0  0  0  0  0  0  0  0  0  0  0  0
    2.8872   -1.2266    0.9107 H   0  0  0  0  0  0  0  0  0  0  0  0
    2.3220    1.4551    0.2982 H   0  0  0  0  0  0  0  0  0  0  0  0
    0.3138    2.9530    0.3594 H   0  0  0  0  0  0  0  0  0  0  0  0
   -1.9619    1.9327    0.1146 H   0  0  0  0  0  0  0  0  0  0  0  0
   -3.1525   -0.5532    0.6515 H   0  0  0  0  0  0  0  0  0  0  0  0
   -2.3856   -1.8195   -0.3439 H   0  0  0  0  0  0  0  0  0  0  0  0
   -3.0546   -0.3501   -1.1027 H   0  0  0  0  0  0  0  0  0  0  0  0
  1  2  1  0  0  0  0
  1 11  1  0  0  0  0
  2  3  2  0  0  0  0
  3  4  1  0  0  0  0
  3 12  1  0  0  0  0
  4 13  1  0  0  0  0
  5 14  1  0  0  0  0
  5  4  2  0  0  0  0
  6  5  1  0  0  0  0
  7  6  2  0  0  0  0
  7  2  1  0  0  0  0
  8  6  1  0  0  0  0
  8 15  1  0  0  0  0
  9  1  1  0  0  0  0
 10  1  1  0  0  0  0
 16  8  1  0  0  0  0
 17  8  1  0  0  0  0
M  END
>  <Charge>
0.0

>  <InChI>
1/C7H9N/c1-6-4-3-5-7(2)8-6/h3-5H,1-2H3

>  <Molecular Formula>
C_{7}H_{9}N

>  <Name>
2,6-LUTIDINE

>  <SMILES>
Cc1cccc(n1)C

>  <logK (2,2,4-TRIMETHYLPENTANE)>
3.88

>  <logK (HEXADECANE)>
3.86

>  <mean polarizability>
13.74

>  <dipole moment>
1.51413719055

$$$$
346
 OpenBabel08101817183D

 12 12  0  0  0  0  0  0  0  0999 V2000
   -0.6961    0.7206    0.0116 C   0  0  0  0  0  0  0  0  0  0  0  0
    0.8213    0.7237    0.2213 C   0  0  0  0  0  0  0  0  0  0  0  0
    1.2693   -0.7229    0.0669 C   0  0  0  0  0  0  0  0  0  0  0  0
    2.3850   -1.1691    0.1538 O   0  0  0  0  0  0  0  0  0  0  0  0
    0.1880   -1.5191   -0.2009 O   0  0  0  0  0  0  0  0  0  0  0  0
   -1.0418   -0.7647   -0.2576 C   0  0  0  0  0  0  0  0  0  0  0  0
   -0.9924    1.3483   -0.8363 H   0  0  0  0  0  0  0  0  0  0  0  0
   -1.2309    1.0903    0.8936 H   0  0  0  0  0  0  0  0  0  0  0  0
    1.1303    1.0732    1.2144 H   0  0  0  0  0  0  0  0  0  0  0  0
    1.3681    1.3309   -0.5109 H   0  0  0  0  0  0  0  0  0  0  0  0
   -1.4803   -0.9254   -1.2510 H   0  0  0  0  0  0  0  0  0  0  0  0
   -1.7206   -1.1859    0.4954 H   0  0  0  0  0  0  0  0  0  0  0  0
  1  2  1  0  0  0  0
  1  8  1  0  0  0  0
  2  9  1  0  0  0  0
  3  4  2  0  0  0  0
  3  2  1  0  0  0  0
  5  3  1  0  0  0  0
  6  5  1  0  0  0  0
  6  1  1  0  0  0  0
  6 12  1  0  0  0  0
  7  1  1  0  0  0  0
 10  2  1  0  0  0  0
 11  6  1  0  0  0  0
M  END
>  <Charge>
0.0

>  <InChI>
1/C4H6O2/c5-4-2-1-3-6-4/h1-3H2

>  <Molecular Formula>
C_{4}H_{6}O_{2}

>  <Name>
BUTYROLACTONE

>  <SMILES>
C1CC(=O)OC1

>  <logK (2,2,4-TRIMETHYLPENTANE)>
3.66

>  <mean polarizability>
8.02

>  <dipole moment>
4.56730727629

>  <Formula>
C4H6O2

$$$$
347
 OpenBabel08101817183D

 17 16  0  0  0  0  0  0  0  0999 V2000
   -1.4332    0.8239   -0.9110 C   0  0  0  0  0  0  0  0  0  0  0  0
    0.0001   -0.0001   -0.0000 Si  0  0  0  0  0  0  0  0  0  0  0  0
   -0.4977   -1.7497    0.5044 C   0  0  0  0  0  0  0  0  0  0  0  0
    1.5062   -0.0767   -1.1353 C   0  0  0  0  0  0  0  0  0  0  0  0
    0.4247    1.0025    1.5419 C   0  0  0  0  0  0  0  0  0  0  0  0
   -1.7056    0.2628   -1.8163 H   0  0  0  0  0  0  0  0  0  0  0  0
   -1.1742    1.8470   -1.2190 H   0  0  0  0  0  0  0  0  0  0  0  0
   -2.3279    0.8842   -0.2752 H   0  0  0  0  0  0  0  0  0  0  0  0
   -0.7519   -2.3607   -0.3734 H   0  0  0  0  0  0  0  0  0  0  0  0
    0.3177   -2.2579    1.0387 H   0  0  0  0  0  0  0  0  0  0  0  0
   -1.3743   -1.7391    1.1676 H   0  0  0  0  0  0  0  0  0  0  0  0
    1.2908   -0.6553   -2.0449 H   0  0  0  0  0  0  0  0  0  0  0  0
    1.8218    0.9290   -1.4476 H   0  0  0  0  0  0  0  0  0  0  0  0
    2.3604   -0.5525   -0.6328 H   0  0  0  0  0  0  0  0  0  0  0  0
   -0.4342    1.0661    2.2251 H   0  0  0  0  0  0  0  0  0  0  0  0
    1.2579    0.5476    2.0963 H   0  0  0  0  0  0  0  0  0  0  0  0
    0.7194    2.0290    1.2813 H   0  0  0  0  0  0  0  0  0  0  0  0
  1  8  1  0  0  0  0
  1  2  1  0  0  0  0
  2  3  1  0  0  0  0
  2  5  1  0  0  0  0
  3 10  1  0  0  0  0
  3 11  1  0  0  0  0
  4 14  1  0  0  0  0
  4  2  1  0  0  0  0
  5 16  1  0  0  0  0
  5 15  1  0  0  0  0
  6  1  1  0  0  0  0
  7  1  1  0  0  0  0
  9  3  1  0  0  0  0
 12  4  1  0  0  0  0
 13  4  1  0  0  0  0
 17  5  1  0  0  0  0
M  END
>  <Charge>
0.0

>  <InChI>
1/C4H12Si/c1-5(2,3)4/h1-4H3

>  <Molecular Formula>
C_{4}H_{12}Si

>  <Name>
TETRAMETHYLSILANE

>  <SMILES>
C[Si](C)(C)C

>  <logK (HEXADECANE)>
2.14

>  <mean polarizability>
11.96

>  <dipole moment>
0.000391918788239

$$$$
348
 OpenBabel08101817183D

 13 12  0  0  0  0  0  0  0  0999 V2000
   -1.4850    0.6000   -0.2682 C   0  0  0  0  0  0  0  0  0  0  0  0
   -0.5324   -0.0357    0.7411 C   0  0  0  0  0  0  0  0  0  0  0  0
    0.5429   -0.9326    0.0919 C   0  0  0  0  0  0  0  0  0  0  0  0
    1.4699   -0.2086   -0.7687 C   0  0  0  0  0  0  0  0  0  0  0  0
    2.2389    0.4122   -1.4683 C   0  0  0  0  0  0  0  0  0  0  0  0
   -2.0378   -0.1671   -0.8302 H   0  0  0  0  0  0  0  0  0  0  0  0
   -0.9386    1.2179   -0.9936 H   0  0  0  0  0  0  0  0  0  0  0  0
   -2.2218    1.2410    0.2343 H   0  0  0  0  0  0  0  0  0  0  0  0
   -1.0987   -0.6537    1.4543 H   0  0  0  0  0  0  0  0  0  0  0  0
   -0.0303    0.7462    1.3298 H   0  0  0  0  0  0  0  0  0  0  0  0
    0.0507   -1.7264   -0.4951 H   0  0  0  0  0  0  0  0  0  0  0  0
    1.1181   -1.4449    0.8798 H   0  0  0  0  0  0  0  0  0  0  0  0
    2.9240    0.9515   -2.0871 H   0  0  0  0  0  0  0  0  0  0  0  0
  1  8  1  0  0  0  0
  1  2  1  0  0  0  0
  2 10  1  0  0  0  0
  2  9  1  0  0  0  0
  3  2  1  0  0  0  0
  3 12  1  0  0  0  0
  4  3  1  0  0  0  0
  5  4  3  0  0  0  0
  6  1  1  0  0  0  0
  7  1  1  0  0  0  0
 11  3  1  0  0  0  0
 13  5  1  0  0  0  0
M  END
>  <Charge>
0.0

>  <InChI>
1/C5H8/c1-3-5-4-2/h1H,4-5H2,2H3

>  <Molecular Formula>
C_{5}H_{8}

>  <Name>
PENT-1-YNE

>  <SMILES>
CCCC#C

>  <logK (BENZONITRILE)>
2.428

>  <logK (DIMETHYLFORMAMIDE)>
2.54

>  <logK (HEXADECANE)>
2.01

>  <mean polarizability>
9.13

>  <dipole moment>
0.875741514267

$$$$
349
 OpenBabel08101817183D

 16 15  0  0  0  0  0  0  0  0999 V2000
   -2.2077   -0.1620    0.3632 C   0  0  0  0  0  0  0  0  0  0  0  0
   -1.0539   -1.0734   -0.0603 C   0  0  0  0  0  0  0  0  0  0  0  0
    0.2530   -0.3404   -0.3832 C   0  0  0  0  0  0  0  0  0  0  0  0
    0.9006    0.3327    0.8442 C   0  0  0  0  0  0  0  0  0  0  0  0
    2.1681    0.9803    0.5374 C   0  0  0  0  0  0  0  0  0  0  0  0
    3.2214    1.5052    0.2526 C   0  0  0  0  0  0  0  0  0  0  0  0
   -2.4240    0.5878   -0.4117 H   0  0  0  0  0  0  0  0  0  0  0  0
   -3.1261   -0.7409    0.5308 H   0  0  0  0  0  0  0  0  0  0  0  0
   -1.9902    0.3773    1.2955 H   0  0  0  0  0  0  0  0  0  0  0  0
   -0.8640   -1.8209    0.7279 H   0  0  0  0  0  0  0  0  0  0  0  0
   -1.3572   -1.6451   -0.9508 H   0  0  0  0  0  0  0  0  0  0  0  0
    0.0743    0.4241   -1.1553 H   0  0  0  0  0  0  0  0  0  0  0  0
    0.9774   -1.0489   -0.8106 H   0  0  0  0  0  0  0  0  0  0  0  0
    1.0625   -0.4242    1.6303 H   0  0  0  0  0  0  0  0  0  0  0  0
    0.2135    1.0784    1.2745 H   0  0  0  0  0  0  0  0  0  0  0  0
    4.1524    1.9700    0.0077 H   0  0  0  0  0  0  0  0  0  0  0  0
  1  8  1  0  0  0  0
  1  9  1  0  0  0  0
  2  1  1  0  0  0  0
  2 10  1  0  0  0  0
  3  2  1  0  0  0  0
  3  4  1  0  0  0  0
  4 15  1  0  0  0  0
  4 14  1  0  0  0  0
  5  4  1  0  0  0  0
  6  5  3  0  0  0  0
  7  1  1  0  0  0  0
 11  2  1  0  0  0  0
 12  3  1  0  0  0  0
 13  3  1  0  0  0  0
 16  6  1  0  0  0  0
M  END
>  <Charge>
0.0

>  <InChI>
1/C6H10/c1-3-5-6-4-2/h1H,4-6H2,2H3

>  <Molecular Formula>
C_{6}H_{10}

>  <Name>
HEX-1-YNE

>  <SMILES>
CCCCC#C

>  <logK (DIMETHYLFORMAMIDE)>
2.88

>  <logK (HEXADECANE)>
2.51

>  <logK (SULFOLANE)>
2.402

>  <mean polarizability>
11.13

>  <dipole moment>
1.08487563985

$$$$
350
 OpenBabel08101817183D

 19 18  0  0  0  0  0  0  0  0999 V2000
   -2.7097    0.9736    0.4012 C   0  0  0  0  0  0  0  0  0  0  0  0
   -1.7757   -0.1115   -0.1352 C   0  0  0  0  0  0  0  0  0  0  0  0
   -0.3445    0.0126    0.3928 C   0  0  0  0  0  0  0  0  0  0  0  0
    0.5876   -1.0824   -0.1247 C   0  0  0  0  0  0  0  0  0  0  0  0
    2.0384   -0.9595    0.3866 C   0  0  0  0  0  0  0  0  0  0  0  0
    2.7318    0.2324   -0.0856 C   0  0  0  0  0  0  0  0  0  0  0  0
    3.2985    1.2199   -0.4980 C   0  0  0  0  0  0  0  0  0  0  0  0
   -2.3529    1.9763    0.1249 H   0  0  0  0  0  0  0  0  0  0  0  0
   -2.7723    0.9365    1.4986 H   0  0  0  0  0  0  0  0  0  0  0  0
   -3.7283    0.8611    0.0057 H   0  0  0  0  0  0  0  0  0  0  0  0
   -1.7587   -0.0719   -1.2368 H   0  0  0  0  0  0  0  0  0  0  0  0
   -2.1764   -1.1049    0.1265 H   0  0  0  0  0  0  0  0  0  0  0  0
   -0.3605   -0.0157    1.4963 H   0  0  0  0  0  0  0  0  0  0  0  0
    0.0638    0.9987    0.1178 H   0  0  0  0  0  0  0  0  0  0  0  0
    0.2040   -2.0690    0.1803 H   0  0  0  0  0  0  0  0  0  0  0  0
    0.5970   -1.0742   -1.2258 H   0  0  0  0  0  0  0  0  0  0  0  0
    2.6125   -1.8476    0.0771 H   0  0  0  0  0  0  0  0  0  0  0  0
    2.0388   -0.9634    1.4897 H   0  0  0  0  0  0  0  0  0  0  0  0
    3.8065    2.0890   -0.8579 H   0  0  0  0  0  0  0  0  0  0  0  0
  1  9  1  0  0  0  0
  2 12  1  0  0  0  0
  2  3  1  0  0  0  0
  2  1  1  0  0  0  0
  3 13  1  0  0  0  0
  4 15  1  0  0  0  0
  4  5  1  0  0  0  0
  4  3  1  0  0  0  0
  5 18  1  0  0  0  0
  6  5  1  0  0  0  0
  7  6  3  0  0  0  0
  8  1  1  0  0  0  0
 10  1  1  0  0  0  0
 11  2  1  0  0  0  0
 14  3  1  0  0  0  0
 16  4  1  0  0  0  0
 17  5  1  0  0  0  0
 19  7  1  0  0  0  0
M  END
>  <Charge>
0.0

>  <InChI>
1/C7H12/c1-3-5-7-6-4-2/h1H,4-7H2,2H3

>  <Molecular Formula>
C_{7}H_{12}

>  <Name>
HEPT-1-YNE

>  <SMILES>
CCCCCC#C

>  <logK (2-ISOPROPOXYETHANOL)>
3.13870498989

>  <logK (2-PROPOXYETHANOL)>
3.13785115544

>  <logK (DIMETHYLFORMAMIDE)>
3.17

>  <logK (HEXADECANE)>
3.0

>  <logK (N-METHYLPYRROLIDONE)>
3.04

>  <logK (PYRIDINE)>
3.452

>  <logK (SULFOLANE)>
2.867

>  <mean polarizability>
12.98

>  <dipole moment>
0.869044133481

$$$$
351
 OpenBabel08101817183D

 22 21  0  0  0  0  0  0  0  0999 V2000
   -3.0961    0.4578   -0.5615 C   0  0  0  0  0  0  0  0  0  0  0  0
   -1.7453    0.7347    0.0987 C   0  0  0  0  0  0  0  0  0  0  0  0
   -1.1174   -0.5164    0.7194 C   0  0  0  0  0  0  0  0  0  0  0  0
    0.2020   -0.2694    1.4651 C   0  0  0  0  0  0  0  0  0  0  0  0
    1.3707    0.2431    0.6136 C   0  0  0  0  0  0  0  0  0  0  0  0
    1.8306   -0.7596   -0.4640 C   0  0  0  0  0  0  0  0  0  0  0  0
    2.9798   -0.2925   -1.2262 C   0  0  0  0  0  0  0  0  0  0  0  0
    3.9351    0.1237   -1.8428 C   0  0  0  0  0  0  0  0  0  0  0  0
   -3.8210    0.0642    0.1658 H   0  0  0  0  0  0  0  0  0  0  0  0
   -3.5254    1.3683   -1.0008 H   0  0  0  0  0  0  0  0  0  0  0  0
   -3.0002   -0.2859   -1.3659 H   0  0  0  0  0  0  0  0  0  0  0  0
   -1.0606    1.1692   -0.6463 H   0  0  0  0  0  0  0  0  0  0  0  0
   -1.8666    1.5015    0.8818 H   0  0  0  0  0  0  0  0  0  0  0  0
   -0.9747   -1.2783   -0.0654 H   0  0  0  0  0  0  0  0  0  0  0  0
   -1.8372   -0.9586    1.4277 H   0  0  0  0  0  0  0  0  0  0  0  0
    0.5104   -1.2030    1.9640 H   0  0  0  0  0  0  0  0  0  0  0  0
    0.0191    0.4578    2.2728 H   0  0  0  0  0  0  0  0  0  0  0  0
    2.2257    0.4630    1.2692 H   0  0  0  0  0  0  0  0  0  0  0  0
    1.1098    1.1938    0.1263 H   0  0  0  0  0  0  0  0  0  0  0  0
    1.0044   -0.9724   -1.1612 H   0  0  0  0  0  0  0  0  0  0  0  0
    2.0793   -1.7217    0.0151 H   0  0  0  0  0  0  0  0  0  0  0  0
    4.7777    0.4805   -2.3955 H   0  0  0  0  0  0  0  0  0  0  0  0
  1  2  1  0  0  0  0
  1  9  1  0  0  0  0
  2  3  1  0  0  0  0
  2 13  1  0  0  0  0
  3 15  1  0  0  0  0
  3  4  1  0  0  0  0
  4 16  1  0  0  0  0
  4 17  1  0  0  0  0
  5 18  1  0  0  0  0
  5  4  1  0  0  0  0
  6 21  1  0  0  0  0
  6  5  1  0  0  0  0
  7  6  1  0  0  0  0
  8  7  3  0  0  0  0
 10  1  1  0  0  0  0
 11  1  1  0  0  0  0
 12  2  1  0  0  0  0
 14  3  1  0  0  0  0
 19  5  1  0  0  0  0
 20  6  1  0  0  0  0
 22  8  1  0  0  0  0
M  END
>  <Charge>
0.0

>  <InChI>
1/C8H14/c1-3-5-7-8-6-4-2/h1H,4-8H2,2H3

>  <Molecular Formula>
C_{8}H_{14}

>  <Name>
OCT-1-YNE

>  <SMILES>
CCCCCCC#C

>  <logK (2-ISOPROPOXYETHANOL)>
3.59803549156

>  <logK (DIMETHYLFORMAMIDE)>
3.65

>  <logK (HEXADECANE)>
3.48

>  <logK (N-METHYLPYRROLIDONE)>
3.57

>  <logK (SULFOLANE)>
3.089

>  <mean polarizability>
14.91

>  <dipole moment>
1.0788471545

$$$$
352
 OpenBabel08101817183D

 25 24  0  0  0  0  0  0  0  0999 V2000
   -3.6211    1.2626    0.6567 C   0  0  0  0  0  0  0  0  0  0  0  0
   -2.8640    0.0510    0.1127 C   0  0  0  0  0  0  0  0  0  0  0  0
   -1.3435    0.2271    0.1352 C   0  0  0  0  0  0  0  0  0  0  0  0
   -0.5859   -0.9821   -0.4213 C   0  0  0  0  0  0  0  0  0  0  0  0
    0.9382   -0.8157   -0.4881 C   0  0  0  0  0  0  0  0  0  0  0  0
    1.6284   -0.7559    0.8758 C   0  0  0  0  0  0  0  0  0  0  0  0
    3.1650   -0.6492    0.7815 C   0  0  0  0  0  0  0  0  0  0  0  0
    3.6352    0.5983    0.1920 C   0  0  0  0  0  0  0  0  0  0  0  0
    4.0111    1.6447   -0.2878 C   0  0  0  0  0  0  0  0  0  0  0  0
   -4.7083    1.1083    0.6242 H   0  0  0  0  0  0  0  0  0  0  0  0
   -3.3951    2.1664    0.0724 H   0  0  0  0  0  0  0  0  0  0  0  0
   -3.3447    1.4678    1.7012 H   0  0  0  0  0  0  0  0  0  0  0  0
   -3.1334   -0.8450    0.6962 H   0  0  0  0  0  0  0  0  0  0  0  0
   -3.1883   -0.1530   -0.9213 H   0  0  0  0  0  0  0  0  0  0  0  0
   -1.0243    0.4331    1.1702 H   0  0  0  0  0  0  0  0  0  0  0  0
   -1.0733    1.1231   -0.4499 H   0  0  0  0  0  0  0  0  0  0  0  0
   -0.8306   -1.8743    0.1810 H   0  0  0  0  0  0  0  0  0  0  0  0
   -0.9604   -1.1925   -1.4366 H   0  0  0  0  0  0  0  0  0  0  0  0
    1.3633   -1.6589   -1.0579 H   0  0  0  0  0  0  0  0  0  0  0  0
    1.1838    0.0940   -1.0598 H   0  0  0  0  0  0  0  0  0  0  0  0
    1.2535    0.0958    1.4619 H   0  0  0  0  0  0  0  0  0  0  0  0
    1.3873   -1.6661    1.4482 H   0  0  0  0  0  0  0  0  0  0  0  0
    3.6025   -0.7505    1.7877 H   0  0  0  0  0  0  0  0  0  0  0  0
    3.5547   -1.4955    0.1909 H   0  0  0  0  0  0  0  0  0  0  0  0
    4.3498    2.5666   -0.7100 H   0  0  0  0  0  0  0  0  0  0  0  0
  1 12  1  0  0  0  0
  2  3  1  0  0  0  0
  2  1  1  0  0  0  0
  2 13  1  0  0  0  0
  3 15  1  0  0  0  0
  4  3  1  0  0  0  0
  4 17  1  0  0  0  0
  5  4  1  0  0  0  0
  5  6  1  0  0  0  0
  6 22  1  0  0  0  0
  6 21  1  0  0  0  0
  7  6  1  0  0  0  0
  7 23  1  0  0  0  0
  8  7  1  0  0  0  0
  9  8  3  0  0  0  0
 10  1  1  0  0  0  0
 11  1  1  0  0  0  0
 14  2  1  0  0  0  0
 16  3  1  0  0  0  0
 18  4  1  0  0  0  0
 19  5  1  0  0  0  0
 20  5  1  0  0  0  0
 24  7  1  0  0  0  0
 25  9  1  0  0  0  0
M  END
>  <Charge>
0.0

>  <InChI>
1/C9H16/c1-3-5-7-9-8-6-4-2/h1H,4-9H2,2H3

>  <Molecular Formula>
C_{9}H_{16}

>  <Name>
1-NONYNE

>  <SMILES>
CCCCCCCC#C

>  <logK (HEXADECANE)>
3.96

>  <mean polarizability>
16.77

>  <dipole moment>
0.879392196034

$$$$
353
 OpenBabel08101817183D

 27 27  0  0  0  0  0  0  0  0999 V2000
    3.8184    0.3700    0.4520 C   0  0  0  0  0  0  0  0  0  0  0  0
    3.2937   -0.9922   -0.0068 C   0  0  0  0  0  0  0  0  0  0  0  0
    2.0293   -0.9252   -0.8730 C   0  0  0  0  0  0  0  0  0  0  0  0
    0.7859   -0.4095   -0.1446 C   0  0  0  0  0  0  0  0  0  0  0  0
   -0.4712   -0.4130   -1.0326 C   0  0  0  0  0  0  0  0  0  0  0  0
   -1.7004    0.0952   -0.3205 C   0  0  0  0  0  0  0  0  0  0  0  0
   -2.5220   -0.7765    0.4080 C   0  0  0  0  0  0  0  0  0  0  0  0
   -3.6375   -0.3044    1.1012 C   0  0  0  0  0  0  0  0  0  0  0  0
   -3.9540    1.0553    1.0772 C   0  0  0  0  0  0  0  0  0  0  0  0
   -3.1472    1.9355    0.3534 C   0  0  0  0  0  0  0  0  0  0  0  0
   -2.0323    1.4572   -0.3371 C   0  0  0  0  0  0  0  0  0  0  0  0
    3.0987    0.8921    1.0968 H   0  0  0  0  0  0  0  0  0  0  0  0
    4.0275    1.0228   -0.4086 H   0  0  0  0  0  0  0  0  0  0  0  0
    4.7513    0.2643    1.0221 H   0  0  0  0  0  0  0  0  0  0  0  0
    3.0942   -1.6254    0.8736 H   0  0  0  0  0  0  0  0  0  0  0  0
    4.0831   -1.5072   -0.5763 H   0  0  0  0  0  0  0  0  0  0  0  0
    1.8151   -1.9313   -1.2700 H   0  0  0  0  0  0  0  0  0  0  0  0
    2.2261   -0.2884   -1.7529 H   0  0  0  0  0  0  0  0  0  0  0  0
    0.5975   -1.0297    0.7475 H   0  0  0  0  0  0  0  0  0  0  0  0
    0.9538    0.6137    0.2253 H   0  0  0  0  0  0  0  0  0  0  0  0
   -0.2802    0.2044   -1.9246 H   0  0  0  0  0  0  0  0  0  0  0  0
   -0.6513   -1.4382   -1.3935 H   0  0  0  0  0  0  0  0  0  0  0  0
   -2.2860   -1.8426    0.4251 H   0  0  0  0  0  0  0  0  0  0  0  0
   -4.2645   -1.0022    1.6576 H   0  0  0  0  0  0  0  0  0  0  0  0
   -4.8269    1.4253    1.6150 H   0  0  0  0  0  0  0  0  0  0  0  0
   -3.3899    2.9982    0.3221 H   0  0  0  0  0  0  0  0  0  0  0  0
   -1.4110    2.1517   -0.9066 H   0  0  0  0  0  0  0  0  0  0  0  0
  1 14  1  0  0  0  0
  1 12  1  0  0  0  0
  2  1  1  0  0  0  0
  2 15  1  0  0  0  0
  3  4  1  0  0  0  0
  3  2  1  0  0  0  0
  4 20  1  0  0  0  0
  4 19  1  0  0  0  0
  5  6  1  0  0  0  0
  5  4  1  0  0  0  0
  6  7  1  0  0  0  0
  7 23  1  0  0  0  0
  7  8  2  0  0  0  0
  8 24  1  0  0  0  0
  9  8  1  0  0  0  0
  9 25  1  0  0  0  0
 10  9  2  0  0  0  0
 11  6  2  0  0  0  0
 11 10  1  0  0  0  0
 13  1  1  0  0  0  0
 16  2  1  0  0  0  0
 17  3  1  0  0  0  0
 18  3  1  0  0  0  0
 21  5  1  0  0  0  0
 22  5  1  0  0  0  0
 26 10  1  0  0  0  0
 27 11  1  0  0  0  0
M  END
>  <Charge>
0.0

>  <InChI>
1/C11H16/c1-2-3-5-8-11-9-6-4-7-10-11/h4,6-7,9-10H,2-3,5,8H2,1H3

>  <Molecular Formula>
C_{11}H_{16}

>  <Name>
N-AMYLBENZENE

>  <SMILES>
CCCCCc1ccccc1

>  <logK (HEXADECANE)>
5.152

>  <dipole moment>
0.559828336616

>  <mean polarizability>
20.11

$$$$
354
 OpenBabel08101817183D

 21 21  0  0  0  0  0  0  0  0999 V2000
    2.8481   -0.6243    0.1074 C   0  0  0  0  0  0  0  0  0  0  0  0
    1.3783   -0.2952    0.0515 C   0  0  0  0  0  0  0  0  0  0  0  0
    0.9364    1.0291   -0.0317 C   0  0  0  0  0  0  0  0  0  0  0  0
   -0.4282    1.3443   -0.0869 C   0  0  0  0  0  0  0  0  0  0  0  0
   -1.3558    0.2981   -0.0507 C   0  0  0  0  0  0  0  0  0  0  0  0
   -0.9485   -1.0398    0.0352 C   0  0  0  0  0  0  0  0  0  0  0  0
    0.4211   -1.3182    0.0821 C   0  0  0  0  0  0  0  0  0  0  0  0
   -1.9640   -2.1514    0.1034 C   0  0  0  0  0  0  0  0  0  0  0  0
   -0.8841    2.7755   -0.2108 C   0  0  0  0  0  0  0  0  0  0  0  0
    3.4649    0.2820    0.0666 H   0  0  0  0  0  0  0  0  0  0  0  0
    3.1435   -1.2714   -0.7312 H   0  0  0  0  0  0  0  0  0  0  0  0
    3.1012   -1.1630    1.0321 H   0  0  0  0  0  0  0  0  0  0  0  0
    1.6722    1.8365   -0.0573 H   0  0  0  0  0  0  0  0  0  0  0  0
   -2.4232    0.5293   -0.0906 H   0  0  0  0  0  0  0  0  0  0  0  0
    0.7524   -2.3578    0.1473 H   0  0  0  0  0  0  0  0  0  0  0  0
   -1.5690   -3.0823   -0.3237 H   0  0  0  0  0  0  0  0  0  0  0  0
   -2.2471   -2.3650    1.1456 H   0  0  0  0  0  0  0  0  0  0  0  0
   -2.8834   -1.8896   -0.4361 H   0  0  0  0  0  0  0  0  0  0  0  0
   -1.8686    2.9246    0.2514 H   0  0  0  0  0  0  0  0  0  0  0  0
   -0.1746    3.4659    0.2636 H   0  0  0  0  0  0  0  0  0  0  0  0
   -0.9716    3.0730   -1.2671 H   0  0  0  0  0  0  0  0  0  0  0  0
  1 12  1  0  0  0  0
  2  7  1  0  0  0  0
  2  1  1  0  0  0  0
  3  2  2  0  0  0  0
  4  5  2  0  0  0  0
  4  3  1  0  0  0  0
  5  6  1  0  0  0  0
  6  7  2  0  0  0  0
  6  8  1  0  0  0  0
  7 15  1  0  0  0  0
  8 17  1  0  0  0  0
  9  4  1  0  0  0  0
  9 19  1  0  0  0  0
  9 20  1  0  0  0  0
 10  1  1  0  0  0  0
 11  1  1  0  0  0  0
 13  3  1  0  0  0  0
 14  5  1  0  0  0  0
 16  8  1  0  0  0  0
 18  8  1  0  0  0  0
 21  9  1  0  0  0  0
M  END
>  <Charge>
0.0

>  <InChI>
1/C9H12/c1-7-4-8(2)6-9(3)5-7/h4-6H,1-3H3

>  <Molecular Formula>
C_{9}H_{12}

>  <Name>
MESITYLENE

>  <SMILES>
Cc1cc(cc(c1)C)C

>  <logK (DIIODOMETHANE)>
3.96

>  <logK (HEXADECANE)>
4.399

>  <mean polarizability>
16.58

>  <dipole moment>
0.0390299502542

$$$$
355
 OpenBabel08101817183D

 28 27  0  0  0  0  0  0  0  0999 V2000
    3.7948   -0.2197    1.9365 C   0  0  0  0  0  0  0  0  0  0  0  0
    3.3268    0.0080    0.4996 C   0  0  0  0  0  0  0  0  0  0  0  0
    1.8484   -0.3254    0.2842 C   0  0  0  0  0  0  0  0  0  0  0  0
    1.3793   -0.0841   -1.1533 C   0  0  0  0  0  0  0  0  0  0  0  0
   -0.0611   -0.5205   -1.4473 C   0  0  0  0  0  0  0  0  0  0  0  0
   -1.1329    0.2715   -0.6926 C   0  0  0  0  0  0  0  0  0  0  0  0
   -2.5612   -0.1404   -1.0986 C   0  0  0  0  0  0  0  0  0  0  0  0
   -3.5967    0.6683   -0.3322 C   0  0  0  0  0  0  0  0  0  0  0  0
   -3.9787    1.7545   -0.7353 O   0  0  0  0  0  0  0  0  0  0  0  0
   -4.1079    0.0707    0.9636 C   0  0  0  0  0  0  0  0  0  0  0  0
    3.2303    0.4070    2.6421 H   0  0  0  0  0  0  0  0  0  0  0  0
    3.6528   -1.2670    2.2395 H   0  0  0  0  0  0  0  0  0  0  0  0
    4.8595    0.0200    2.0583 H   0  0  0  0  0  0  0  0  0  0  0  0
    3.5054    1.0578    0.2145 H   0  0  0  0  0  0  0  0  0  0  0  0
    3.9365   -0.5997   -0.1894 H   0  0  0  0  0  0  0  0  0  0  0  0
    1.2431    0.2709    0.9867 H   0  0  0  0  0  0  0  0  0  0  0  0
    1.6727   -1.3822    0.5519 H   0  0  0  0  0  0  0  0  0  0  0  0
    2.0540   -0.6231   -1.8385 H   0  0  0  0  0  0  0  0  0  0  0  0
    1.4930    0.9856   -1.3985 H   0  0  0  0  0  0  0  0  0  0  0  0
   -0.2496   -0.4229   -2.5286 H   0  0  0  0  0  0  0  0  0  0  0  0
   -0.1709   -1.5936   -1.2145 H   0  0  0  0  0  0  0  0  0  0  0  0
   -1.0084    1.3474   -0.8909 H   0  0  0  0  0  0  0  0  0  0  0  0
   -1.0063    0.1361    0.3930 H   0  0  0  0  0  0  0  0  0  0  0  0
   -2.7058    0.0518   -2.1709 H   0  0  0  0  0  0  0  0  0  0  0  0
   -2.6995   -1.2169   -0.9134 H   0  0  0  0  0  0  0  0  0  0  0  0
   -4.7499   -0.7934    0.7307 H   0  0  0  0  0  0  0  0  0  0  0  0
   -4.6875    0.8096    1.5256 H   0  0  0  0  0  0  0  0  0  0  0  0
   -3.2798   -0.3117    1.5776 H   0  0  0  0  0  0  0  0  0  0  0  0
  1 13  1  0  0  0  0
  1 12  1  0  0  0  0
  1 11  1  0  0  0  0
  2  1  1  0  0  0  0
  3  2  1  0  0  0  0
  3 17  1  0  0  0  0
  3 16  1  0  0  0  0
  4  3  1  0  0  0  0
  5 21  1  0  0  0  0
  5  4  1  0  0  0  0
  5  6  1  0  0  0  0
  6 23  1  0  0  0  0
  7 25  1  0  0  0  0
  7  6  1  0  0  0  0
  7  8  1  0  0  0  0
  8 10  1  0  0  0  0
  9  8  2  0  0  0  0
 10 27  1  0  0  0  0
 10 28  1  0  0  0  0
 14  2  1  0  0  0  0
 15  2  1  0  0  0  0
 18  4  1  0  0  0  0
 19  4  1  0  0  0  0
 20  5  1  0  0  0  0
 22  6  1  0  0  0  0
 24  7  1  0  0  0  0
 26 10  1  0  0  0  0
M  END
>  <Charge>
0.0

>  <InChI>
1/C9H18O/c1-3-4-5-6-7-8-9(2)10/h3-8H2,1-2H3

>  <Molecular Formula>
C_{9}H_{18}O

>  <Name>
2-NONANONE

>  <SMILES>
CCCCCCCC(=O)C

>  <logK (FORMAMIDE)>
3.98

>  <logK (HEXADECANE)>
4.755

>  <mean polarizability>
17.95

>  <dipole moment>
3.01005554857

$$$$
356
 OpenBabel08101817183D

 31 30  0  0  0  0  0  0  0  0999 V2000
   -4.6408    0.4980    0.0012 C   0  0  0  0  0  0  0  0  0  0  0  0
   -3.9744   -0.6115   -0.8149 C   0  0  0  0  0  0  0  0  0  0  0  0
   -2.4482   -0.4922   -0.9188 C   0  0  0  0  0  0  0  0  0  0  0  0
   -1.7082   -0.6950    0.4080 C   0  0  0  0  0  0  0  0  0  0  0  0
   -0.1781   -0.7163    0.2853 C   0  0  0  0  0  0  0  0  0  0  0  0
    0.4464    0.6336   -0.0826 C   0  0  0  0  0  0  0  0  0  0  0  0
    1.9699    0.6000   -0.2618 C   0  0  0  0  0  0  0  0  0  0  0  0
    2.7390    0.2893    1.0346 C   0  0  0  0  0  0  0  0  0  0  0  0
    4.2521    0.3471    0.8934 C   0  0  0  0  0  0  0  0  0  0  0  0
    4.9319    1.0668    1.6066 O   0  0  0  0  0  0  0  0  0  0  0  0
    4.8850   -0.5269   -0.1738 C   0  0  0  0  0  0  0  0  0  0  0  0
   -4.4133    1.4883   -0.4198 H   0  0  0  0  0  0  0  0  0  0  0  0
   -5.7330    0.3839    0.0084 H   0  0  0  0  0  0  0  0  0  0  0  0
   -4.3052    0.4979    1.0469 H   0  0  0  0  0  0  0  0  0  0  0  0
   -4.2293   -1.5923   -0.3803 H   0  0  0  0  0  0  0  0  0  0  0  0
   -4.3982   -0.6118   -1.8311 H   0  0  0  0  0  0  0  0  0  0  0  0
   -2.0812   -1.2413   -1.6404 H   0  0  0  0  0  0  0  0  0  0  0  0
   -2.1969    0.4921   -1.3470 H   0  0  0  0  0  0  0  0  0  0  0  0
   -2.0401   -1.6496    0.8485 H   0  0  0  0  0  0  0  0  0  0  0  0
   -1.9978    0.0878    1.1276 H   0  0  0  0  0  0  0  0  0  0  0  0
    0.2429   -1.0647    1.2414 H   0  0  0  0  0  0  0  0  0  0  0  0
    0.1135   -1.4681   -0.4695 H   0  0  0  0  0  0  0  0  0  0  0  0
    0.1869    1.3759    0.6912 H   0  0  0  0  0  0  0  0  0  0  0  0
    0.0011    1.0021   -1.0192 H   0  0  0  0  0  0  0  0  0  0  0  0
    2.3058    1.5762   -0.6452 H   0  0  0  0  0  0  0  0  0  0  0  0
    2.2237   -0.1424   -1.0354 H   0  0  0  0  0  0  0  0  0  0  0  0
    2.4565    0.9936    1.8289 H   0  0  0  0  0  0  0  0  0  0  0  0
    2.4809   -0.7256    1.3822 H   0  0  0  0  0  0  0  0  0  0  0  0
    4.6941   -0.0905   -1.1660 H   0  0  0  0  0  0  0  0  0  0  0  0
    5.9666   -0.5801   -0.0162 H   0  0  0  0  0  0  0  0  0  0  0  0
    4.4487   -1.5356   -0.1822 H   0  0  0  0  0  0  0  0  0  0  0  0
  1 13  1  0  0  0  0
  1 14  1  0  0  0  0
  2 15  1  0  0  0  0
  2  1  1  0  0  0  0
  3  2  1  0  0  0  0
  3  4  1  0  0  0  0
  4 19  1  0  0  0  0
  4 20  1  0  0  0  0
  5  4  1  0  0  0  0
  5 21  1  0  0  0  0
  6  5  1  0  0  0  0
  6 23  1  0  0  0  0
  7  6  1  0  0  0  0
  7  8  1  0  0  0  0
  8 28  1  0  0  0  0
  8 27  1  0  0  0  0
  9  8  1  0  0  0  0
  9 10  2  0  0  0  0
 11 30  1  0  0  0  0
 11  9  1  0  0  0  0
 12  1  1  0  0  0  0
 16  2  1  0  0  0  0
 17  3  1  0  0  0  0
 18  3  1  0  0  0  0
 22  5  1  0  0  0  0
 24  6  1  0  0  0  0
 25  7  1  0  0  0  0
 26  7  1  0  0  0  0
 29 11  1  0  0  0  0
 31 11  1  0  0  0  0
M  END
>  <Charge>
0.0

>  <InChI>
1/C10H20O/c1-3-4-5-6-7-8-9-10(2)11/h3-9H2,1-2H3

>  <Molecular Formula>
C_{10}H_{20}O

>  <Name>
2-DECANONE

>  <SMILES>
CCCCCCCCC(=O)C

>  <logK (HEXADECANE)>
5.26

>  <dipole moment>
3.33508011421

>  <mean polarizability>
19.8

$$$$
357
 OpenBabel08101817183D

 34 33  0  0  0  0  0  0  0  0999 V2000
   -4.4346    0.9194    1.1436 C   0  0  0  0  0  0  0  0  0  0  0  0
   -4.5648   -0.3255    0.2636 C   0  0  0  0  0  0  0  0  0  0  0  0
   -3.5500   -0.3984   -0.8847 C   0  0  0  0  0  0  0  0  0  0  0  0
   -2.0941   -0.5718   -0.4425 C   0  0  0  0  0  0  0  0  0  0  0  0
   -1.1241   -0.7050   -1.6203 C   0  0  0  0  0  0  0  0  0  0  0  0
    0.3373   -0.9543   -1.2269 C   0  0  0  0  0  0  0  0  0  0  0  0
    1.0154    0.2143   -0.5059 C   0  0  0  0  0  0  0  0  0  0  0  0
    2.4925   -0.0445   -0.1943 C   0  0  0  0  0  0  0  0  0  0  0  0
    3.1553    1.1343    0.5190 C   0  0  0  0  0  0  0  0  0  0  0  0
    4.6335    1.0341    0.8988 C   0  0  0  0  0  0  0  0  0  0  0  0
    5.1772    1.9679    1.4651 O   0  0  0  0  0  0  0  0  0  0  0  0
    5.3958   -0.2303    0.5619 C   0  0  0  0  0  0  0  0  0  0  0  0
   -5.2153    0.9438    1.9160 H   0  0  0  0  0  0  0  0  0  0  0  0
   -4.5314    1.8372    0.5448 H   0  0  0  0  0  0  0  0  0  0  0  0
   -3.4649    0.9607    1.6580 H   0  0  0  0  0  0  0  0  0  0  0  0
   -5.5803   -0.3587   -0.1609 H   0  0  0  0  0  0  0  0  0  0  0  0
   -4.4686   -1.2297    0.8875 H   0  0  0  0  0  0  0  0  0  0  0  0
   -3.6362    0.5129   -1.5018 H   0  0  0  0  0  0  0  0  0  0  0  0
   -3.8197   -1.2380   -1.5467 H   0  0  0  0  0  0  0  0  0  0  0  0
   -2.0151   -1.4711    0.1936 H   0  0  0  0  0  0  0  0  0  0  0  0
   -1.7960    0.2777    0.1906 H   0  0  0  0  0  0  0  0  0  0  0  0
   -1.4636   -1.5334   -2.2637 H   0  0  0  0  0  0  0  0  0  0  0  0
   -1.1821    0.2036   -2.2442 H   0  0  0  0  0  0  0  0  0  0  0  0
    0.9149   -1.1893   -2.1362 H   0  0  0  0  0  0  0  0  0  0  0  0
    0.3936   -1.8553   -0.5918 H   0  0  0  0  0  0  0  0  0  0  0  0
    0.9288    1.1226   -1.1268 H   0  0  0  0  0  0  0  0  0  0  0  0
    0.4858    0.4380    0.4340 H   0  0  0  0  0  0  0  0  0  0  0  0
    3.0232   -0.2647   -1.1348 H   0  0  0  0  0  0  0  0  0  0  0  0
    2.5738   -0.9541    0.4227 H   0  0  0  0  0  0  0  0  0  0  0  0
    3.0638    2.0503   -0.0880 H   0  0  0  0  0  0  0  0  0  0  0  0
    2.6209    1.3659    1.4552 H   0  0  0  0  0  0  0  0  0  0  0  0
    6.4317   -0.1364    0.9008 H   0  0  0  0  0  0  0  0  0  0  0  0
    4.9248   -1.1035    1.0369 H   0  0  0  0  0  0  0  0  0  0  0  0
    5.3725   -0.4185   -0.5216 H   0  0  0  0  0  0  0  0  0  0  0  0
  1 15  1  0  0  0  0
  1 13  1  0  0  0  0
  2 17  1  0  0  0  0
  2  1  1  0  0  0  0
  3  4  1  0  0  0  0
  3  2  1  0  0  0  0
  4 21  1  0  0  0  0
  4 20  1  0  0  0  0
  5  6  1  0  0  0  0
  5  4  1  0  0  0  0
  6 25  1  0  0  0  0
  6  7  1  0  0  0  0
  7  8  1  0  0  0  0
  7 27  1  0  0  0  0
  8 29  1  0  0  0  0
  8  9  1  0  0  0  0
  9 10  1  0  0  0  0
  9 31  1  0  0  0  0
 10 11  2  0  0  0  0
 12 10  1  0  0  0  0
 12 32  1  0  0  0  0
 12 33  1  0  0  0  0
 14  1  1  0  0  0  0
 16  2  1  0  0  0  0
 18  3  1  0  0  0  0
 19  3  1  0  0  0  0
 22  5  1  0  0  0  0
 23  5  1  0  0  0  0
 24  6  1  0  0  0  0
 26  7  1  0  0  0  0
 28  8  1  0  0  0  0
 30  9  1  0  0  0  0
 34 12  1  0  0  0  0
M  END
>  <Charge>
0.0

>  <InChI>
1/C11H22O/c1-3-4-5-6-7-8-9-10-11(2)12/h3-10H2,1-2H3

>  <Molecular Formula>
C_{11}H_{22}O

>  <Name>
2-UNDECANONE

>  <SMILES>
CCCCCCCCCC(=O)C

>  <logK (HEXADECANE)>
5.76

>  <dipole moment>
3.30090776928

>  <mean polarizability>
21.66

$$$$
358
 OpenBabel08101817183D

 28 27  0  0  0  0  0  0  0  0999 V2000
   -3.9315    0.5022    0.7053 C   0  0  0  0  0  0  0  0  0  0  0  0
   -2.7663    1.1880   -0.0094 C   0  0  0  0  0  0  0  0  0  0  0  0
   -2.1250    0.3475   -1.1215 C   0  0  0  0  0  0  0  0  0  0  0  0
   -1.4747   -0.9690   -0.6441 C   0  0  0  0  0  0  0  0  0  0  0  0
   -0.3437   -0.7442    0.3445 C   0  0  0  0  0  0  0  0  0  0  0  0
   -0.4447   -1.0656    1.5187 O   0  0  0  0  0  0  0  0  0  0  0  0
    0.9393   -0.1083   -0.1787 C   0  0  0  0  0  0  0  0  0  0  0  0
    2.1315   -1.0726   -0.0412 C   0  0  0  0  0  0  0  0  0  0  0  0
    3.4601   -0.4878   -0.5344 C   0  0  0  0  0  0  0  0  0  0  0  0
    3.9671    0.7020    0.2815 C   0  0  0  0  0  0  0  0  0  0  0  0
   -3.6043   -0.3930    1.2499 H   0  0  0  0  0  0  0  0  0  0  0  0
   -4.7111    0.1980   -0.0087 H   0  0  0  0  0  0  0  0  0  0  0  0
   -4.3960    1.1768    1.4364 H   0  0  0  0  0  0  0  0  0  0  0  0
   -3.1164    2.1319   -0.4547 H   0  0  0  0  0  0  0  0  0  0  0  0
   -1.9998    1.4687    0.7305 H   0  0  0  0  0  0  0  0  0  0  0  0
   -2.8896    0.0936   -1.8729 H   0  0  0  0  0  0  0  0  0  0  0  0
   -1.3726    0.9555   -1.6474 H   0  0  0  0  0  0  0  0  0  0  0  0
   -2.2165   -1.6210   -0.1664 H   0  0  0  0  0  0  0  0  0  0  0  0
   -1.0690   -1.4969   -1.5227 H   0  0  0  0  0  0  0  0  0  0  0  0
    0.8259    0.2062   -1.2269 H   0  0  0  0  0  0  0  0  0  0  0  0
    1.1229    0.7940    0.4238 H   0  0  0  0  0  0  0  0  0  0  0  0
    1.9137   -1.9936   -0.6049 H   0  0  0  0  0  0  0  0  0  0  0  0
    2.2164   -1.3674    1.0154 H   0  0  0  0  0  0  0  0  0  0  0  0
    4.2169   -1.2873   -0.5136 H   0  0  0  0  0  0  0  0  0  0  0  0
    3.3593   -0.1956   -1.5928 H   0  0  0  0  0  0  0  0  0  0  0  0
    4.0856    0.4327    1.3409 H   0  0  0  0  0  0  0  0  0  0  0  0
    3.2801    1.5579    0.2330 H   0  0  0  0  0  0  0  0  0  0  0  0
    4.9424    1.0474   -0.0861 H   0  0  0  0  0  0  0  0  0  0  0  0
  1 11  1  0  0  0  0
  1 13  1  0  0  0  0
  2  1  1  0  0  0  0
  2 15  1  0  0  0  0
  3  4  1  0  0  0  0
  3  2  1  0  0  0  0
  4 18  1  0  0  0  0
  4  5  1  0  0  0  0
  5  6  2  0  0  0  0
  7  8  1  0  0  0  0
  7  5  1  0  0  0  0
  7 21  1  0  0  0  0
  8 23  1  0  0  0  0
  9 24  1  0  0  0  0
  9  8  1  0  0  0  0
  9 10  1  0  0  0  0
 10 26  1  0  0  0  0
 12  1  1  0  0  0  0
 14  2  1  0  0  0  0
 16  3  1  0  0  0  0
 17  3  1  0  0  0  0
 19  4  1  0  0  0  0
 20  7  1  0  0  0  0
 22  8  1  0  0  0  0
 25  9  1  0  0  0  0
 27 10  1  0  0  0  0
 28 10  1  0  0  0  0
M  END
>  <Charge>
0.0

>  <InChI>
1/C9H18O/c1-3-5-7-9(10)8-6-4-2/h3-8H2,1-2H3

>  <Molecular Formula>
C_{9}H_{18}O

>  <Name>
5-NONANONE

>  <SMILES>
CCCCC(=O)CCCC

>  <logK (HEXADECANE)>
4.64

>  <dipole moment>
2.76343445636

>  <mean polarizability>
17.64

$$$$
359
 OpenBabel08101817183D

  4  3  0  0  0  0  0  0  0  0999 V2000
   -0.0055    0.0002   -0.0005 C   0  0  0  0  0  0  0  0  0  0  0  0
    1.1982   -0.0309    0.0889 O   0  0  0  0  0  0  0  0  0  0  0  0
   -0.6153   -0.9286   -0.1172 H   0  0  0  0  0  0  0  0  0  0  0  0
   -0.5774    0.9594    0.0288 H   0  0  0  0  0  0  0  0  0  0  0  0
  1  4  1  0  0  0  0
  1  2  2  0  0  0  0
  3  1  1  0  0  0  0
M  END
>  <Charge>
0.0

>  <InChI>
1/CH2O/c1-2/h1H2

>  <Molecular Formula>
CH_{2}O

>  <Name>
FORMALDEHYDE

>  <SMILES>
C=O

>  <logK (HEXADECANE)>
0.73

>  <mean polarizability>
2.62

>  <dipole moment>
2.22384598163

$$$$
360
 OpenBabel08101817183D

  7  6  0  0  0  0  0  0  0  0999 V2000
   -0.6474   -0.0687    0.0072 C   0  0  0  0  0  0  0  0  0  0  0  0
    0.8559    0.0654   -0.0155 C   0  0  0  0  0  0  0  0  0  0  0  0
    1.4431    1.1026    0.2068 O   0  0  0  0  0  0  0  0  0  0  0  0
   -0.9756   -1.0892   -0.2205 H   0  0  0  0  0  0  0  0  0  0  0  0
   -1.0226    0.2264    0.9973 H   0  0  0  0  0  0  0  0  0  0  0  0
   -1.0846    0.6296   -0.7203 H   0  0  0  0  0  0  0  0  0  0  0  0
    1.4312   -0.8661   -0.2549 H   0  0  0  0  0  0  0  0  0  0  0  0
  1  5  1  0  0  0  0
  2  1  1  0  0  0  0
  2  3  2  0  0  0  0
  4  1  1  0  0  0  0
  6  1  1  0  0  0  0
  7  2  1  0  0  0  0
M  END
>  <Charge>
0.0

>  <InChI>
1/C2H4O/c1-2-3/h2H,1H3

>  <Molecular Formula>
C_{2}H_{4}O

>  <Name>
ETHANAL

>  <SMILES>
CC=O

>  <logK (1-METHYL-2-PIPERIDINONE)>
2.23

>  <logK (5,8,11,14-TETRAOXAOCTADECANE)>
1.902

>  <logK (DIETHYLENE GLYCOL DIBUTYL ETHER)>
1.853

>  <logK (HEXADECANE)>
1.23

>  <logK (N,N-DIBUTYLFORMAMID)>
2.04

>  <logK (N,N-DIETHYLACETAMIDE)>
2.24

>  <logK (N,N-DIMETHYLACETAMIDE)>
2.36

>  <logK (N-ETHYLACETAMIDE)>
2.0

>  <logK (N-METHYLACETAMIDE)>
2.09

>  <logK (SULFOLANE)>
2.143

>  <logK (TETRAETHYLENE GLYCOL DIMETHYL ETHER)>
2.073

>  <mean polarizability>
4.61

>  <dipole moment>
2.64954009781

$$$$
361
 OpenBabel08101817183D

 22 21  0  0  0  0  0  0  0  0999 V2000
    3.4780    0.1881    0.8811 C   0  0  0  0  0  0  0  0  0  0  0  0
    1.9784    0.0675    1.1499 C   0  0  0  0  0  0  0  0  0  0  0  0
    1.1284    0.1423   -0.1204 C   0  0  0  0  0  0  0  0  0  0  0  0
   -0.3732    0.0204    0.1428 C   0  0  0  0  0  0  0  0  0  0  0  0
   -1.2166    0.0529   -1.1351 C   0  0  0  0  0  0  0  0  0  0  0  0
   -2.7173   -0.0533   -0.8741 C   0  0  0  0  0  0  0  0  0  0  0  0
   -3.3757    1.1869   -0.3218 C   0  0  0  0  0  0  0  0  0  0  0  0
   -2.8349    2.2624   -0.1704 O   0  0  0  0  0  0  0  0  0  0  0  0
    3.7195    1.1469    0.3999 H   0  0  0  0  0  0  0  0  0  0  0  0
    4.0616    0.1258    1.8096 H   0  0  0  0  0  0  0  0  0  0  0  0
    3.8280   -0.6129    0.2136 H   0  0  0  0  0  0  0  0  0  0  0  0
    1.6619    0.8636    1.8433 H   0  0  0  0  0  0  0  0  0  0  0  0
    1.7717   -0.8840    1.6671 H   0  0  0  0  0  0  0  0  0  0  0  0
    1.3303    1.0955   -0.6380 H   0  0  0  0  0  0  0  0  0  0  0  0
    1.4454   -0.6540   -0.8162 H   0  0  0  0  0  0  0  0  0  0  0  0
   -0.5722   -0.9218    0.6829 H   0  0  0  0  0  0  0  0  0  0  0  0
   -0.6928    0.8359    0.8099 H   0  0  0  0  0  0  0  0  0  0  0  0
   -1.0162    0.9868   -1.6822 H   0  0  0  0  0  0  0  0  0  0  0  0
   -0.9095   -0.7726   -1.7960 H   0  0  0  0  0  0  0  0  0  0  0  0
   -2.9580   -0.8848   -0.1864 H   0  0  0  0  0  0  0  0  0  0  0  0
   -3.2771   -0.2960   -1.7968 H   0  0  0  0  0  0  0  0  0  0  0  0
   -4.4597    1.0579   -0.0629 H   0  0  0  0  0  0  0  0  0  0  0  0
  1  2  1  0  0  0  0
  1 10  1  0  0  0  0
  2 13  1  0  0  0  0
  2 12  1  0  0  0  0
  3  4  1  0  0  0  0
  3  2  1  0  0  0  0
  4 16  1  0  0  0  0
  4 17  1  0  0  0  0
  5  6  1  0  0  0  0
  5  4  1  0  0  0  0
  6  7  1  0  0  0  0
  6 20  1  0  0  0  0
  7  8  2  0  0  0  0
  7 22  1  0  0  0  0
  9  1  1  0  0  0  0
 11  1  1  0  0  0  0
 14  3  1  0  0  0  0
 15  3  1  0  0  0  0
 18  5  1  0  0  0  0
 19  5  1  0  0  0  0
 21  6  1  0  0  0  0
M  END
>  <Charge>
0.0

>  <InChI>
1/C7H14O/c1-2-3-4-5-6-7-8/h7H,2-6H2,1H3

>  <Molecular Formula>
C_{7}H_{14}O

>  <Name>
HEPTANAL

>  <SMILES>
CCCCCCC=O

>  <logK (HEXADECANE)>
3.86

>  <mean polarizability>
14.04

>  <dipole moment>
2.51063270136

$$$$
362
 OpenBabel08101817183D

 25 24  0  0  0  0  0  0  0  0999 V2000
    3.6616   -0.3235    0.4673 C   0  0  0  0  0  0  0  0  0  0  0  0
    3.0422    0.3407   -0.7640 C   0  0  0  0  0  0  0  0  0  0  0  0
    1.6130    0.8577   -0.5548 C   0  0  0  0  0  0  0  0  0  0  0  0
    0.5701   -0.2318   -0.2911 C   0  0  0  0  0  0  0  0  0  0  0  0
   -0.8541    0.3138   -0.1718 C   0  0  0  0  0  0  0  0  0  0  0  0
   -1.8925   -0.7718    0.1261 C   0  0  0  0  0  0  0  0  0  0  0  0
   -3.3176   -0.2365    0.2428 C   0  0  0  0  0  0  0  0  0  0  0  0
   -3.9844    0.1428   -1.0563 C   0  0  0  0  0  0  0  0  0  0  0  0
   -3.5235   -0.0409   -2.1635 O   0  0  0  0  0  0  0  0  0  0  0  0
    3.1137   -1.2274    0.7660 H   0  0  0  0  0  0  0  0  0  0  0  0
    4.7022   -0.6199    0.2776 H   0  0  0  0  0  0  0  0  0  0  0  0
    3.6635    0.3626    1.3273 H   0  0  0  0  0  0  0  0  0  0  0  0
    3.6789    1.1836   -1.0749 H   0  0  0  0  0  0  0  0  0  0  0  0
    3.0483   -0.3696   -1.6073 H   0  0  0  0  0  0  0  0  0  0  0  0
    1.6075    1.5762    0.2833 H   0  0  0  0  0  0  0  0  0  0  0  0
    1.3076    1.4297   -1.4462 H   0  0  0  0  0  0  0  0  0  0  0  0
    0.6060   -0.9727   -1.1081 H   0  0  0  0  0  0  0  0  0  0  0  0
    0.8233   -0.7808    0.6306 H   0  0  0  0  0  0  0  0  0  0  0  0
   -1.1255    0.8309   -1.1052 H   0  0  0  0  0  0  0  0  0  0  0  0
   -0.8865    1.0745    0.6277 H   0  0  0  0  0  0  0  0  0  0  0  0
   -1.8630   -1.5332   -0.6681 H   0  0  0  0  0  0  0  0  0  0  0  0
   -1.6260   -1.2833    1.0639 H   0  0  0  0  0  0  0  0  0  0  0  0
   -3.3748    0.6431    0.9098 H   0  0  0  0  0  0  0  0  0  0  0  0
   -3.9935   -0.9755    0.7129 H   0  0  0  0  0  0  0  0  0  0  0  0
   -4.9967    0.6112   -0.9363 H   0  0  0  0  0  0  0  0  0  0  0  0
  1 10  1  0  0  0  0
  1 12  1  0  0  0  0
  2  3  1  0  0  0  0
  2  1  1  0  0  0  0
  3  4  1  0  0  0  0
  3 15  1  0  0  0  0
  4  5  1  0  0  0  0
  4 18  1  0  0  0  0
  5  6  1  0  0  0  0
  5 20  1  0  0  0  0
  6  7  1  0  0  0  0
  6 22  1  0  0  0  0
  7 24  1  0  0  0  0
  7 23  1  0  0  0  0
  8 25  1  0  0  0  0
  8  7  1  0  0  0  0
  9  8  2  0  0  0  0
 11  1  1  0  0  0  0
 13  2  1  0  0  0  0
 14  2  1  0  0  0  0
 16  3  1  0  0  0  0
 17  4  1  0  0  0  0
 19  5  1  0  0  0  0
 21  6  1  0  0  0  0
M  END
>  <Charge>
0.0

>  <InChI>
1/C8H16O/c1-2-3-4-5-6-7-8-9/h8H,2-7H2,1H3

>  <Molecular Formula>
C_{8}H_{16}O

>  <Name>
OCTANAL

>  <SMILES>
CCCCCCCC=O

>  <logK (FORMAMIDE)>
3.16

>  <logK (HEXADECANE)>
4.38

>  <dipole moment>
2.44137171353

>  <mean polarizability>
15.89

$$$$
363
 OpenBabel08101817183D

 28 27  0  0  0  0  0  0  0  0999 V2000
   -4.2507    0.8089   -0.3015 C   0  0  0  0  0  0  0  0  0  0  0  0
   -3.7831   -0.4423    0.4448 C   0  0  0  0  0  0  0  0  0  0  0  0
   -2.3960   -0.9485    0.0280 C   0  0  0  0  0  0  0  0  0  0  0  0
   -1.2399   -0.0064    0.3753 C   0  0  0  0  0  0  0  0  0  0  0  0
    0.1349   -0.5842    0.0305 C   0  0  0  0  0  0  0  0  0  0  0  0
    1.2927    0.3608    0.3568 C   0  0  0  0  0  0  0  0  0  0  0  0
    2.6683   -0.2311    0.0416 C   0  0  0  0  0  0  0  0  0  0  0  0
    3.8218    0.7377    0.3518 C   0  0  0  0  0  0  0  0  0  0  0  0
    5.1659    0.0820    0.1757 C   0  0  0  0  0  0  0  0  0  0  0  0
    6.0373    0.4595   -0.5789 O   0  0  0  0  0  0  0  0  0  0  0  0
   -5.2687    1.0927   -0.0016 H   0  0  0  0  0  0  0  0  0  0  0  0
   -3.6000    1.6723   -0.1066 H   0  0  0  0  0  0  0  0  0  0  0  0
   -4.2603    0.6393   -1.3886 H   0  0  0  0  0  0  0  0  0  0  0  0
   -3.7838   -0.2459    1.5299 H   0  0  0  0  0  0  0  0  0  0  0  0
   -4.5147   -1.2493    0.2841 H   0  0  0  0  0  0  0  0  0  0  0  0
   -2.3927   -1.1421   -1.0587 H   0  0  0  0  0  0  0  0  0  0  0  0
   -2.2137   -1.9235    0.5094 H   0  0  0  0  0  0  0  0  0  0  0  0
   -1.3664    0.9549   -0.1485 H   0  0  0  0  0  0  0  0  0  0  0  0
   -1.2755    0.2274    1.4535 H   0  0  0  0  0  0  0  0  0  0  0  0
    0.1648   -0.8396   -1.0424 H   0  0  0  0  0  0  0  0  0  0  0  0
    0.2756   -1.5355    0.5717 H   0  0  0  0  0  0  0  0  0  0  0  0
    1.1644    1.3023   -0.2028 H   0  0  0  0  0  0  0  0  0  0  0  0
    1.2536    0.6348    1.4247 H   0  0  0  0  0  0  0  0  0  0  0  0
    2.8063   -1.1622    0.6165 H   0  0  0  0  0  0  0  0  0  0  0  0
    2.7139   -0.5160   -1.0216 H   0  0  0  0  0  0  0  0  0  0  0  0
    3.7760    1.6372   -0.2766 H   0  0  0  0  0  0  0  0  0  0  0  0
    3.7473    1.0515    1.4088 H   0  0  0  0  0  0  0  0  0  0  0  0
    5.3225   -0.8347    0.8061 H   0  0  0  0  0  0  0  0  0  0  0  0
  1 12  1  0  0  0  0
  1 11  1  0  0  0  0
  1  2  1  0  0  0  0
  2 14  1  0  0  0  0
  3  4  1  0  0  0  0
  3  2  1  0  0  0  0
  3 17  1  0  0  0  0
  4 19  1  0  0  0  0
  5  6  1  0  0  0  0
  5  4  1  0  0  0  0
  5 21  1  0  0  0  0
  6 23  1  0  0  0  0
  7  8  1  0  0  0  0
  7  6  1  0  0  0  0
  7 24  1  0  0  0  0
  8 27  1  0  0  0  0
  9  8  1  0  0  0  0
  9 28  1  0  0  0  0
 10  9  2  0  0  0  0
 13  1  1  0  0  0  0
 15  2  1  0  0  0  0
 16  3  1  0  0  0  0
 18  4  1  0  0  0  0
 20  5  1  0  0  0  0
 22  6  1  0  0  0  0
 25  7  1  0  0  0  0
 26  8  1  0  0  0  0
M  END
>  <Charge>
0.0

>  <InChI>
1/C9H18O/c1-2-3-4-5-6-7-8-9-10/h9H,2-8H2,1H3

>  <Molecular Formula>
C_{9}H_{18}O

>  <Name>
NONANAL

>  <SMILES>
CCCCCCCCC=O

>  <logK (FORMAMIDE)>
3.2

>  <logK (HEXADECANE)>
4.9

>  <dipole moment>
3.24780852019

>  <mean polarizability>
18.15

$$$$
364
 OpenBabel08101817183D

 13 12  0  0  0  0  0  0  0  0999 V2000
    1.3861   -0.0232    0.2205 C   0  0  0  0  0  0  0  0  0  0  0  0
   -0.0273   -0.0276   -0.3877 C   0  0  0  0  0  0  0  0  0  0  0  0
   -0.9069    1.1069    0.1262 C   0  0  0  0  0  0  0  0  0  0  0  0
   -0.6483   -1.3940   -0.1807 C   0  0  0  0  0  0  0  0  0  0  0  0
   -1.7210   -1.6118    0.3406 O   0  0  0  0  0  0  0  0  0  0  0  0
    1.9174    0.8982   -0.0486 H   0  0  0  0  0  0  0  0  0  0  0  0
    1.9848   -0.8733   -0.1350 H   0  0  0  0  0  0  0  0  0  0  0  0
    1.3360   -0.0778    1.3169 H   0  0  0  0  0  0  0  0  0  0  0  0
    0.0905    0.0588   -1.4859 H   0  0  0  0  0  0  0  0  0  0  0  0
   -1.9067    1.0705   -0.3228 H   0  0  0  0  0  0  0  0  0  0  0  0
   -0.4546    2.0802   -0.1039 H   0  0  0  0  0  0  0  0  0  0  0  0
   -1.0351    1.0363    1.2143 H   0  0  0  0  0  0  0  0  0  0  0  0
   -0.0150   -2.2430   -0.5538 H   0  0  0  0  0  0  0  0  0  0  0  0
  1  8  1  0  0  0  0
  2  4  1  0  0  0  0
  2  3  1  0  0  0  0
  2  1  1  0  0  0  0
  3 12  1  0  0  0  0
  4  5  2  0  0  0  0
  6  1  1  0  0  0  0
  7  1  1  0  0  0  0
  9  2  1  0  0  0  0
 10  3  1  0  0  0  0
 11  3  1  0  0  0  0
 13  4  1  0  0  0  0
M  END
>  <Charge>
0.0

>  <InChI>
1/C4H8O/c1-4(2)3-5/h3-4H,1-2H3

>  <Molecular Formula>
C_{4}H_{8}O

>  <Name>
ISOBUTYRALDEHYDE

>  <SMILES>
CC(C)C=O

>  <logK (1-METHYL-2-PIPERIDINONE)>
2.87

>  <logK (4-FORMYLMORPHOLINE)>
2.66

>  <logK (5,8,11,14-TETRAOXAOCTADECANE)>
2.627

>  <logK (DIETHYLENE GLYCOL DIBUTYL ETHER)>
2.63

>  <logK (DIMETHYLFORMAMIDE)>
3.0

>  <logK (ETHYL ACETATE)>
2.97

>  <logK (HEXADECANE)>
2.06

>  <logK (N,N-DIBUTYLFORMAMID)>
2.77

>  <logK (N,N-DIMETHYLACETAMIDE)>
2.96

>  <logK (N-METHYLACETAMIDE)>
2.7

>  <logK (N-METHYLPYRROLIDONE)>
2.78

>  <logK (SULFOLANE)>
2.67

>  <logK (TETRAETHYLENE GLYCOL DIMETHYL ETHER)>
2.68

>  <mean polarizability>
8.27

>  <dipole moment>
2.7645926598

$$$$
365
 OpenBabel08101817183D

 11 10  0  0  0  0  0  0  0  0999 V2000
   -1.7730   -0.0597    0.2111 C   0  0  0  0  0  0  0  0  0  0  0  0
   -0.3499    0.3910    0.1076 C   0  0  0  0  0  0  0  0  0  0  0  0
    0.7212   -0.4205    0.0447 C   0  0  0  0  0  0  0  0  0  0  0  0
    2.0970    0.1033   -0.0563 C   0  0  0  0  0  0  0  0  0  0  0  0
    2.4008    1.2854   -0.0925 O   0  0  0  0  0  0  0  0  0  0  0  0
   -2.4696    0.7848    0.2475 H   0  0  0  0  0  0  0  0  0  0  0  0
   -2.0512   -0.6921   -0.6451 H   0  0  0  0  0  0  0  0  0  0  0  0
   -1.9307   -0.6685    1.1138 H   0  0  0  0  0  0  0  0  0  0  0  0
   -0.1493    1.4664    0.0797 H   0  0  0  0  0  0  0  0  0  0  0  0
    0.6115   -1.5087    0.0665 H   0  0  0  0  0  0  0  0  0  0  0  0
    2.8931   -0.6813   -0.1005 H   0  0  0  0  0  0  0  0  0  0  0  0
  1  6  1  0  0  0  0
  1  8  1  0  0  0  0
  2  1  1  0  0  0  0
  3 10  1  0  0  0  0
  3  2  2  0  0  0  0
  4  3  1  0  0  0  0
  5  4  2  0  0  0  0
  7  1  1  0  0  0  0
  9  2  1  0  0  0  0
 11  4  1  0  0  0  0
M  END
>  <Charge>
0.0

>  <InChI>
1/C4H6O/c1-2-3-4-5/h2-4H,1H3/b3-2+

>  <Molecular Formula>
C_{4}H_{6}O

>  <Name>
CROTONALDEHYDE

>  <SMILES>
C/C=C/C=O

>  <logK (4-FORMYLMORPHOLINE)>
3.44

>  <logK (HEXADECANE)>
2.57

>  <logK (N-METHYLPYRROLIDONE)>
3.66

>  <mean polarizability>
8.51

>  <dipole moment>
3.41463754337

$$$$
366
 OpenBabel08101817183D

 19 19  0  0  0  0  0  0  0  0999 V2000
    3.3588   -0.0279   -0.0829 C   0  0  0  0  0  0  0  0  0  0  0  0
    1.9560    0.2985    0.3868 C   0  0  0  0  0  0  0  0  0  0  0  0
    1.0366   -0.3519   -0.4988 O   0  0  0  0  0  0  0  0  0  0  0  0
   -0.3016   -0.1954   -0.2655 C   0  0  0  0  0  0  0  0  0  0  0  0
   -1.1572   -0.8539   -1.1632 C   0  0  0  0  0  0  0  0  0  0  0  0
   -2.5356   -0.7560   -1.0103 C   0  0  0  0  0  0  0  0  0  0  0  0
   -3.0852   -0.0041    0.0345 C   0  0  0  0  0  0  0  0  0  0  0  0
   -2.2327    0.6474    0.9227 C   0  0  0  0  0  0  0  0  0  0  0  0
   -0.8433    0.5597    0.7837 C   0  0  0  0  0  0  0  0  0  0  0  0
    3.5211    0.3309   -1.1070 H   0  0  0  0  0  0  0  0  0  0  0  0
    4.0944    0.4549    0.5736 H   0  0  0  0  0  0  0  0  0  0  0  0
    3.5354   -1.1106   -0.0629 H   0  0  0  0  0  0  0  0  0  0  0  0
    1.7776    1.3877    0.3718 H   0  0  0  0  0  0  0  0  0  0  0  0
    1.7917   -0.0576    1.4185 H   0  0  0  0  0  0  0  0  0  0  0  0
   -0.7157   -1.4356   -1.9720 H   0  0  0  0  0  0  0  0  0  0  0  0
   -3.1892   -1.2720   -1.7142 H   0  0  0  0  0  0  0  0  0  0  0  0
   -4.1657    0.0705    0.1515 H   0  0  0  0  0  0  0  0  0  0  0  0
   -2.6451    1.2369    1.7422 H   0  0  0  0  0  0  0  0  0  0  0  0
   -0.2003    1.0784    1.4914 H   0  0  0  0  0  0  0  0  0  0  0  0
  1 12  1  0  0  0  0
  1  2  1  0  0  0  0
  1 11  1  0  0  0  0
  2 14  1  0  0  0  0
  3  4  1  0  0  0  0
  3  2  1  0  0  0  0
  4  9  2  0  0  0  0
  5  6  2  0  0  0  0
  5  4  1  0  0  0  0
  6  7  1  0  0  0  0
  7 17  1  0  0  0  0
  7  8  2  0  0  0  0
  8 18  1  0  0  0  0
  9  8  1  0  0  0  0
  9 19  1  0  0  0  0
 10  1  1  0  0  0  0
 13  2  1  0  0  0  0
 15  5  1  0  0  0  0
 16  6  1  0  0  0  0
M  END
>  <Charge>
0.0

>  <InChI>
1/C8H10O/c1-2-9-8-6-4-3-5-7-8/h3-7H,2H2,1H3

>  <Molecular Formula>
C_{8}H_{10}O

>  <Name>
ETHYL PHENYL ETHER

>  <SMILES>
CCOc1ccccc1

>  <logK (CHLOROFORM)>
5.25

>  <logK (HEXADECANE)>
4.14

>  <Formula>
C8H10O

>  <dipole moment>
1.45051220937

>  <mean polarizability>
15.31

$$$$
367
 OpenBabel08101817183D

 20 19  0  0  0  0  0  0  0  0999 V2000
    2.8529   -0.1897    0.4671 C   0  0  0  0  0  0  0  0  0  0  0  0
    2.2931   -0.3090   -0.9504 C   0  0  0  0  0  0  0  0  0  0  0  0
    1.0564    0.5397   -1.2004 C   0  0  0  0  0  0  0  0  0  0  0  0
   -0.0238    0.1071   -0.3292 O   0  0  0  0  0  0  0  0  0  0  0  0
   -1.1917   -0.2736   -0.9209 C   0  0  0  0  0  0  0  0  0  0  0  0
   -1.3865   -0.2793   -2.1196 O   0  0  0  0  0  0  0  0  0  0  0  0
   -2.2232   -0.6400    0.1239 C   0  0  0  0  0  0  0  0  0  0  0  0
   -3.0508    0.5884    0.5332 C   0  0  0  0  0  0  0  0  0  0  0  0
    2.1108   -0.5000    1.2137 H   0  0  0  0  0  0  0  0  0  0  0  0
    3.1400    0.8476    0.6924 H   0  0  0  0  0  0  0  0  0  0  0  0
    3.7437   -0.8181    0.5961 H   0  0  0  0  0  0  0  0  0  0  0  0
    3.0540    0.0011   -1.6844 H   0  0  0  0  0  0  0  0  0  0  0  0
    2.0525   -1.3582   -1.1807 H   0  0  0  0  0  0  0  0  0  0  0  0
    0.7145    0.4692   -2.2403 H   0  0  0  0  0  0  0  0  0  0  0  0
    1.2436    1.5950   -0.9516 H   0  0  0  0  0  0  0  0  0  0  0  0
   -2.8750   -1.4038   -0.3181 H   0  0  0  0  0  0  0  0  0  0  0  0
   -1.7229   -1.0680    1.0022 H   0  0  0  0  0  0  0  0  0  0  0  0
   -3.5548    1.0274   -0.3371 H   0  0  0  0  0  0  0  0  0  0  0  0
   -3.8180    0.3055    1.2650 H   0  0  0  0  0  0  0  0  0  0  0  0
   -2.4149    1.3584    0.9888 H   0  0  0  0  0  0  0  0  0  0  0  0
  1 11  1  0  0  0  0
  1 10  1  0  0  0  0
  1  9  1  0  0  0  0
  2  1  1  0  0  0  0
  3 15  1  0  0  0  0
  3  2  1  0  0  0  0
  3  4  1  0  0  0  0
  5  4  1  0  0  0  0
  5  7  1  0  0  0  0
  6  5  2  0  0  0  0
  7  8  1  0  0  0  0
  7 17  1  0  0  0  0
  8 20  1  0  0  0  0
  8 19  1  0  0  0  0
 12  2  1  0  0  0  0
 13  2  1  0  0  0  0
 14  3  1  0  0  0  0
 16  7  1  0  0  0  0
 18  8  1  0  0  0  0
M  END
>  <Charge>
0.0

>  <InChI>
1/C6H12O2/c1-3-5-8-6(7)4-2/h3-5H2,1-2H3

>  <Molecular Formula>
C_{6}H_{12}O_{2}

>  <Name>
PROPYL PROPANOATE

>  <SMILES>
CCCOC(=O)CC

>  <logK (HEXADECANE)>
3.37

>  <dipole moment>
1.96100574776

>  <mean polarizability>
12.79

$$$$
368
 OpenBabel08101817183D

 23 22  0  0  0  0  0  0  0  0999 V2000
    2.5192    0.3152   -1.3903 C   0  0  0  0  0  0  0  0  0  0  0  0
    2.6508   -0.3905   -0.0410 C   0  0  0  0  0  0  0  0  0  0  0  0
    2.0487    0.4101    1.1254 C   0  0  0  0  0  0  0  0  0  0  0  0
    0.5599    0.6656    1.0024 C   0  0  0  0  0  0  0  0  0  0  0  0
    0.0333    1.7604    1.0047 O   0  0  0  0  0  0  0  0  0  0  0  0
   -0.1269   -0.5067    0.9030 O   0  0  0  0  0  0  0  0  0  0  0  0
   -1.5678   -0.3971    0.7676 C   0  0  0  0  0  0  0  0  0  0  0  0
   -1.9874   -0.2792   -0.6906 C   0  0  0  0  0  0  0  0  0  0  0  0
   -3.5093   -0.2685   -0.8381 C   0  0  0  0  0  0  0  0  0  0  0  0
    3.0038    1.3018   -1.3732 H   0  0  0  0  0  0  0  0  0  0  0  0
    1.4656    0.4709   -1.6628 H   0  0  0  0  0  0  0  0  0  0  0  0
    2.9846   -0.2735   -2.1919 H   0  0  0  0  0  0  0  0  0  0  0  0
    3.7136   -0.5669    0.1827 H   0  0  0  0  0  0  0  0  0  0  0  0
    2.1724   -1.3791   -0.0839 H   0  0  0  0  0  0  0  0  0  0  0  0
    2.5307    1.3920    1.2135 H   0  0  0  0  0  0  0  0  0  0  0  0
    2.2158   -0.1334    2.0680 H   0  0  0  0  0  0  0  0  0  0  0  0
   -1.9589   -1.3190    1.2184 H   0  0  0  0  0  0  0  0  0  0  0  0
   -1.9138    0.4690    1.3471 H   0  0  0  0  0  0  0  0  0  0  0  0
   -1.5609    0.6448   -1.1073 H   0  0  0  0  0  0  0  0  0  0  0  0
   -1.5563   -1.1201   -1.2546 H   0  0  0  0  0  0  0  0  0  0  0  0
   -3.9585   -1.1880   -0.4356 H   0  0  0  0  0  0  0  0  0  0  0  0
   -3.8020   -0.1906   -1.8930 H   0  0  0  0  0  0  0  0  0  0  0  0
   -3.9563    0.5827   -0.3054 H   0  0  0  0  0  0  0  0  0  0  0  0
  1 10  1  0  0  0  0
  1  2  1  0  0  0  0
  2 13  1  0  0  0  0
  2  3  1  0  0  0  0
  3 15  1  0  0  0  0
  3 16  1  0  0  0  0
  4  5  2  0  0  0  0
  4  3  1  0  0  0  0
  6  4  1  0  0  0  0
  7  6  1  0  0  0  0
  7 17  1  0  0  0  0
  7 18  1  0  0  0  0
  8  7  1  0  0  0  0
  9  8  1  0  0  0  0
  9 21  1  0  0  0  0
  9 23  1  0  0  0  0
 11  1  1  0  0  0  0
 12  1  1  0  0  0  0
 14  2  1  0  0  0  0
 19  8  1  0  0  0  0
 20  8  1  0  0  0  0
 22  9  1  0  0  0  0
M  END
>  <Charge>
0.0

>  <InChI>
1/C7H14O2/c1-3-5-7(8)9-6-4-2/h3-6H2,1-2H3

>  <Molecular Formula>
C_{7}H_{14}O_{2}

>  <Name>
PROPYL BUTYRATE

>  <SMILES>
CCCC(=O)OCCC

>  <logK (HEXADECANE)>
3.81

>  <dipole moment>
1.95346590375

>  <mean polarizability>
14.51

$$$$
369
 OpenBabel08101817183D

 26 25  0  0  0  0  0  0  0  0999 V2000
   -3.8448    0.6759   -1.0009 C   0  0  0  0  0  0  0  0  0  0  0  0
   -2.9014   -0.0728   -0.0593 C   0  0  0  0  0  0  0  0  0  0  0  0
   -1.6636    0.7468    0.3164 C   0  0  0  0  0  0  0  0  0  0  0  0
   -0.7163    0.0597    1.3080 C   0  0  0  0  0  0  0  0  0  0  0  0
    0.0012   -1.1739    0.7743 C   0  0  0  0  0  0  0  0  0  0  0  0
    0.8364   -0.8595   -0.3743 O   0  0  0  0  0  0  0  0  0  0  0  0
    2.1210   -0.4972   -0.1043 C   0  0  0  0  0  0  0  0  0  0  0  0
    2.5873   -0.4230    1.0144 O   0  0  0  0  0  0  0  0  0  0  0  0
    2.8729   -0.2200   -1.3910 C   0  0  0  0  0  0  0  0  0  0  0  0
    4.2958    0.2742   -1.1610 C   0  0  0  0  0  0  0  0  0  0  0  0
   -4.7269    0.0726   -1.2541 H   0  0  0  0  0  0  0  0  0  0  0  0
   -4.2001    1.6113   -0.5447 H   0  0  0  0  0  0  0  0  0  0  0  0
   -3.3398    0.9389   -1.9415 H   0  0  0  0  0  0  0  0  0  0  0  0
   -3.4424   -0.3515    0.8605 H   0  0  0  0  0  0  0  0  0  0  0  0
   -2.5967   -1.0198   -0.5321 H   0  0  0  0  0  0  0  0  0  0  0  0
   -1.1079    1.0099   -0.5980 H   0  0  0  0  0  0  0  0  0  0  0  0
   -1.9926    1.7024    0.7556 H   0  0  0  0  0  0  0  0  0  0  0  0
   -1.2810   -0.2551    2.2020 H   0  0  0  0  0  0  0  0  0  0  0  0
    0.0431    0.7727    1.6607 H   0  0  0  0  0  0  0  0  0  0  0  0
   -0.7027   -1.9270    0.3989 H   0  0  0  0  0  0  0  0  0  0  0  0
    0.6307   -1.6202    1.5543 H   0  0  0  0  0  0  0  0  0  0  0  0
    2.2821    0.5003   -1.9772 H   0  0  0  0  0  0  0  0  0  0  0  0
    2.8617   -1.1492   -1.9821 H   0  0  0  0  0  0  0  0  0  0  0  0
    4.3019    1.2145   -0.5961 H   0  0  0  0  0  0  0  0  0  0  0  0
    4.8028    0.4447   -2.1195 H   0  0  0  0  0  0  0  0  0  0  0  0
    4.8792   -0.4550   -0.5859 H   0  0  0  0  0  0  0  0  0  0  0  0
  1 12  1  0  0  0  0
  1  2  1  0  0  0  0
  2  3  1  0  0  0  0
  2 14  1  0  0  0  0
  3 17  1  0  0  0  0
  3  4  1  0  0  0  0
  4 19  1  0  0  0  0
  4 18  1  0  0  0  0
  5  4  1  0  0  0  0
  5 21  1  0  0  0  0
  6  7  1  0  0  0  0
  6  5  1  0  0  0  0
  7  8  2  0  0  0  0
  9 10  1  0  0  0  0
  9  7  1  0  0  0  0
 10 24  1  0  0  0  0
 10 26  1  0  0  0  0
 11  1  1  0  0  0  0
 13  1  1  0  0  0  0
 15  2  1  0  0  0  0
 16  3  1  0  0  0  0
 20  5  1  0  0  0  0
 22  9  1  0  0  0  0
 23  9  1  0  0  0  0
 25 10  1  0  0  0  0
M  END
>  <Charge>
0.0

>  <InChI>
1/C8H16O2/c1-3-5-6-7-10-8(9)4-2/h3-7H2,1-2H3

>  <Molecular Formula>
C_{8}H_{16}O_{2}

>  <Name>
PENTYL PROPANOATE

>  <SMILES>
CCCCCOC(=O)CC

>  <logK (HEXADECANE)>
4.35

>  <dipole moment>
1.74775245974

>  <mean polarizability>
16.47

$$$$
370
 OpenBabel08101817183D

 14 13  0  0  0  0  0  0  0  0999 V2000
   -0.6342    1.4446   -0.3277 C   0  0  0  0  0  0  0  0  0  0  0  0
   -0.1772   -0.0038   -0.3788 C   0  0  0  0  0  0  0  0  0  0  0  0
   -1.1891   -0.9843    0.1904 C   0  0  0  0  0  0  0  0  0  0  0  0
    1.0428   -0.1083    0.4378 O   0  0  0  0  0  0  0  0  0  0  0  0
    2.1757   -0.4988   -0.1793 C   0  0  0  0  0  0  0  0  0  0  0  0
    2.3152   -0.7798   -1.3474 O   0  0  0  0  0  0  0  0  0  0  0  0
   -1.5497    1.5684   -0.9216 H   0  0  0  0  0  0  0  0  0  0  0  0
   -0.8494    1.7503    0.7051 H   0  0  0  0  0  0  0  0  0  0  0  0
    0.1323    2.1136   -0.7382 H   0  0  0  0  0  0  0  0  0  0  0  0
    0.0979   -0.2852   -1.4036 H   0  0  0  0  0  0  0  0  0  0  0  0
   -2.1218   -0.9357   -0.3874 H   0  0  0  0  0  0  0  0  0  0  0  0
   -0.8105   -2.0128    0.1420 H   0  0  0  0  0  0  0  0  0  0  0  0
   -1.4194   -0.7446    1.2373 H   0  0  0  0  0  0  0  0  0  0  0  0
    2.9875   -0.5236    0.5734 H   0  0  0  0  0  0  0  0  0  0  0  0
  1  8  1  0  0  0  0
  2  1  1  0  0  0  0
  2  3  1  0  0  0  0
  2  4  1  0  0  0  0
  3 13  1  0  0  0  0
  5  4  1  0  0  0  0
  5 14  1  0  0  0  0
  6  5  2  0  0  0  0
  7  1  1  0  0  0  0
  9  1  1  0  0  0  0
 10  2  1  0  0  0  0
 11  3  1  0  0  0  0
 12  3  1  0  0  0  0
M  END
>  <Charge>
0.0

>  <InChI>
1/C4H8O2/c1-4(2)6-3-5/h3-4H,1-2H3

>  <Molecular Formula>
C_{4}H_{8}O_{2}

>  <Name>
ISOPROPYLFORMATE

>  <SMILES>
CC(C)OC=O

>  <logK (HEXADECANE)>
2.23

>  <mean polarizability>
9.03

>  <dipole moment>
2.24240558534

$$$$
371
 OpenBabel08101817183D

 20 19  0  0  0  0  0  0  0  0999 V2000
    2.6237    0.8340    0.3518 C   0  0  0  0  0  0  0  0  0  0  0  0
    2.2901   -0.2506   -0.6685 C   0  0  0  0  0  0  0  0  0  0  0  0
    0.8231   -0.5463   -0.9267 C   0  0  0  0  0  0  0  0  0  0  0  0
    0.4338   -1.2979   -1.7998 O   0  0  0  0  0  0  0  0  0  0  0  0
    0.0038    0.1184   -0.0726 O   0  0  0  0  0  0  0  0  0  0  0  0
   -1.4362   -0.1015   -0.2361 C   0  0  0  0  0  0  0  0  0  0  0  0
   -1.8518   -1.3332    0.5547 C   0  0  0  0  0  0  0  0  0  0  0  0
   -2.1136    1.1754    0.2295 C   0  0  0  0  0  0  0  0  0  0  0  0
    3.7122    0.9525    0.4329 H   0  0  0  0  0  0  0  0  0  0  0  0
    2.1988    1.8029    0.0620 H   0  0  0  0  0  0  0  0  0  0  0  0
    2.2341    0.5862    1.3463 H   0  0  0  0  0  0  0  0  0  0  0  0
    2.7237   -0.0192   -1.6524 H   0  0  0  0  0  0  0  0  0  0  0  0
    2.7406   -1.2127   -0.3777 H   0  0  0  0  0  0  0  0  0  0  0  0
   -1.6154   -0.2730   -1.3066 H   0  0  0  0  0  0  0  0  0  0  0  0
   -1.3305   -2.2255    0.1884 H   0  0  0  0  0  0  0  0  0  0  0  0
   -2.9319   -1.5006    0.4455 H   0  0  0  0  0  0  0  0  0  0  0  0
   -1.6308   -1.2012    1.6229 H   0  0  0  0  0  0  0  0  0  0  0  0
   -1.9025    1.3671    1.2904 H   0  0  0  0  0  0  0  0  0  0  0  0
   -3.2010    1.0872    0.1061 H   0  0  0  0  0  0  0  0  0  0  0  0
   -1.7701    2.0383   -0.3546 H   0  0  0  0  0  0  0  0  0  0  0  0
  1  9  1  0  0  0  0
  1 11  1  0  0  0  0
  2 13  1  0  0  0  0
  2  1  1  0  0  0  0
  3  2  1  0  0  0  0
  3  5  1  0  0  0  0
  4  3  2  0  0  0  0
  6  5  1  0  0  0  0
  6  8  1  0  0  0  0
  6  7  1  0  0  0  0
  7 17  1  0  0  0  0
  8 18  1  0  0  0  0
 10  1  1  0  0  0  0
 12  2  1  0  0  0  0
 14  6  1  0  0  0  0
 15  7  1  0  0  0  0
 16  7  1  0  0  0  0
 19  8  1  0  0  0  0
 20  8  1  0  0  0  0
M  END
>  <Charge>
0.0

>  <InChI>
1/C6H12O2/c1-4-6(7)8-5(2)3/h5H,4H2,1-3H3

>  <Molecular Formula>
C_{6}H_{12}O_{2}

>  <Name>
ISOPROPYL PROPANOATE

>  <SMILES>
CCC(=O)OC(C)C

>  <logK (HEXADECANE)>
3.03

>  <dipole moment>
1.99007638473

>  <mean polarizability>
12.7

$$$$
372
 OpenBabel08101817183D

 17 16  0  0  0  0  0  0  0  0999 V2000
   -0.9175    1.3985    0.4577 C   0  0  0  0  0  0  0  0  0  0  0  0
   -0.5176   -0.0630    0.2392 C   0  0  0  0  0  0  0  0  0  0  0  0
   -1.7160   -0.9158   -0.1908 C   0  0  0  0  0  0  0  0  0  0  0  0
    0.5890   -0.2017   -0.8048 C   0  0  0  0  0  0  0  0  0  0  0  0
    1.8041    0.4988   -0.4098 O   0  0  0  0  0  0  0  0  0  0  0  0
    2.7145   -0.2253    0.2735 C   0  0  0  0  0  0  0  0  0  0  0  0
    2.6298   -1.3913    0.5815 O   0  0  0  0  0  0  0  0  0  0  0  0
   -1.3363    1.8293   -0.4646 H   0  0  0  0  0  0  0  0  0  0  0  0
   -0.0597    2.0136    0.7575 H   0  0  0  0  0  0  0  0  0  0  0  0
   -1.6837    1.4800    1.2406 H   0  0  0  0  0  0  0  0  0  0  0  0
   -0.1242   -0.4716    1.1845 H   0  0  0  0  0  0  0  0  0  0  0  0
   -1.4385   -1.9714   -0.3142 H   0  0  0  0  0  0  0  0  0  0  0  0
   -2.5177   -0.8631    0.5576 H   0  0  0  0  0  0  0  0  0  0  0  0
   -2.1313   -0.5597   -1.1459 H   0  0  0  0  0  0  0  0  0  0  0  0
    0.2951    0.2704   -1.7525 H   0  0  0  0  0  0  0  0  0  0  0  0
    0.8343   -1.2575   -0.9772 H   0  0  0  0  0  0  0  0  0  0  0  0
    3.5756    0.4298    0.5079 H   0  0  0  0  0  0  0  0  0  0  0  0
  1  9  1  0  0  0  0
  1 10  1  0  0  0  0
  2  1  1  0  0  0  0
  2 11  1  0  0  0  0
  3  2  1  0  0  0  0
  3 13  1  0  0  0  0
  4  5  1  0  0  0  0
  4  2  1  0  0  0  0
  5  6  1  0  0  0  0
  6 17  1  0  0  0  0
  6  7  2  0  0  0  0
  8  1  1  0  0  0  0
 12  3  1  0  0  0  0
 14  3  1  0  0  0  0
 15  4  1  0  0  0  0
 16  4  1  0  0  0  0
M  END
>  <Charge>
0.0

>  <InChI>
1/C5H10O2/c1-5(2)3-7-4-6/h4-5H,3H2,1-2H3

>  <Molecular Formula>
C_{5}H_{10}O_{2}

>  <Name>
ISOBUTYL FORMATE

>  <SMILES>
CC(C)COC=O

>  <logK (HEXADECANE)>
2.83

>  <mean polarizability>
10.83

>  <dipole moment>
1.96487072234

$$$$
373
 OpenBabel08101817183D

 20 19  0  0  0  0  0  0  0  0999 V2000
   -2.3654   -0.7007    0.3292 C   0  0  0  0  0  0  0  0  0  0  0  0
   -1.1236    0.0435   -0.1750 C   0  0  0  0  0  0  0  0  0  0  0  0
   -0.9786    1.3900    0.5436 C   0  0  0  0  0  0  0  0  0  0  0  0
    0.1169   -0.8564   -0.0389 C   0  0  0  0  0  0  0  0  0  0  0  0
    1.3805   -0.3992   -0.7573 C   0  0  0  0  0  0  0  0  0  0  0  0
    2.0346    0.7358   -0.1109 O   0  0  0  0  0  0  0  0  0  0  0  0
    2.9563    0.4353    0.8264 C   0  0  0  0  0  0  0  0  0  0  0  0
    3.2903   -0.6697    1.1853 O   0  0  0  0  0  0  0  0  0  0  0  0
   -2.2687   -0.9414    1.3988 H   0  0  0  0  0  0  0  0  0  0  0  0
   -3.2700   -0.0890    0.2082 H   0  0  0  0  0  0  0  0  0  0  0  0
   -2.5202   -1.6443   -0.2127 H   0  0  0  0  0  0  0  0  0  0  0  0
   -1.2660    0.2451   -1.2523 H   0  0  0  0  0  0  0  0  0  0  0  0
   -1.8947    1.9871    0.4334 H   0  0  0  0  0  0  0  0  0  0  0  0
   -0.8099    1.2373    1.6207 H   0  0  0  0  0  0  0  0  0  0  0  0
   -0.1395    1.9794    0.1559 H   0  0  0  0  0  0  0  0  0  0  0  0
    0.3486   -1.0291    1.0245 H   0  0  0  0  0  0  0  0  0  0  0  0
   -0.1260   -1.8479   -0.4565 H   0  0  0  0  0  0  0  0  0  0  0  0
    1.1554   -0.0382   -1.7693 H   0  0  0  0  0  0  0  0  0  0  0  0
    2.1068   -1.2193   -0.8138 H   0  0  0  0  0  0  0  0  0  0  0  0
    3.3730    1.3817    1.2220 H   0  0  0  0  0  0  0  0  0  0  0  0
  1  9  1  0  0  0  0
  2  4  1  0  0  0  0
  2  1  1  0  0  0  0
  2  3  1  0  0  0  0
  3 14  1  0  0  0  0
  4 16  1  0  0  0  0
  5  6  1  0  0  0  0
  5  4  1  0  0  0  0
  6  7  1  0  0  0  0
  7  8  2  0  0  0  0
  7 20  1  0  0  0  0
 10  1  1  0  0  0  0
 11  1  1  0  0  0  0
 12  2  1  0  0  0  0
 13  3  1  0  0  0  0
 15  3  1  0  0  0  0
 17  4  1  0  0  0  0
 18  5  1  0  0  0  0
 19  5  1  0  0  0  0
M  END
>  <Charge>
0.0

>  <InChI>
1/C6H12O2/c1-6(2)3-4-8-5-7/h5-6H,3-4H2,1-2H3

>  <Molecular Formula>
C_{6}H_{12}O_{2}

>  <Name>
ISOAMYL FORMATE

>  <SMILES>
CC(C)CCOC=O

>  <logK (HEXADECANE)>
3.35

>  <dipole moment>
2.09870951059

>  <mean polarizability>
12.67

$$$$
374
 OpenBabel08101817183D

 26 25  0  0  0  0  0  0  0  0999 V2000
    1.9742   -0.1064    1.9994 C   0  0  0  0  0  0  0  0  0  0  0  0
    2.1880    0.5431    0.6282 C   0  0  0  0  0  0  0  0  0  0  0  0
    2.5063   -0.4985   -0.4496 C   0  0  0  0  0  0  0  0  0  0  0  0
    1.0170    1.4388    0.2254 C   0  0  0  0  0  0  0  0  0  0  0  0
   -0.2093    0.6687    0.1150 O   0  0  0  0  0  0  0  0  0  0  0  0
   -0.8529    0.6739   -1.0852 C   0  0  0  0  0  0  0  0  0  0  0  0
   -0.4704    1.2810   -2.0653 O   0  0  0  0  0  0  0  0  0  0  0  0
   -2.1144   -0.1791   -1.0340 C   0  0  0  0  0  0  0  0  0  0  0  0
   -3.1087    0.3514    0.0085 C   0  0  0  0  0  0  0  0  0  0  0  0
   -1.7775   -1.6574   -0.7902 C   0  0  0  0  0  0  0  0  0  0  0  0
    1.7885    0.6479    2.7771 H   0  0  0  0  0  0  0  0  0  0  0  0
    1.1130   -0.7883    1.9800 H   0  0  0  0  0  0  0  0  0  0  0  0
    2.8563   -0.6888    2.2983 H   0  0  0  0  0  0  0  0  0  0  0  0
    3.0491    1.2304    0.7047 H   0  0  0  0  0  0  0  0  0  0  0  0
    2.6764   -0.0281   -1.4274 H   0  0  0  0  0  0  0  0  0  0  0  0
    3.4057   -1.0703   -0.1845 H   0  0  0  0  0  0  0  0  0  0  0  0
    1.6798   -1.2145   -0.5595 H   0  0  0  0  0  0  0  0  0  0  0  0
    0.8277    2.1993    0.9972 H   0  0  0  0  0  0  0  0  0  0  0  0
    1.2024    1.9349   -0.7354 H   0  0  0  0  0  0  0  0  0  0  0  0
   -2.5551   -0.0751   -2.0353 H   0  0  0  0  0  0  0  0  0  0  0  0
   -2.6947    0.2706    1.0217 H   0  0  0  0  0  0  0  0  0  0  0  0
   -4.0379   -0.2335   -0.0301 H   0  0  0  0  0  0  0  0  0  0  0  0
   -3.3636    1.4034   -0.1762 H   0  0  0  0  0  0  0  0  0  0  0  0
   -2.6932   -2.2621   -0.8410 H   0  0  0  0  0  0  0  0  0  0  0  0
   -1.0773   -2.0417   -1.5440 H   0  0  0  0  0  0  0  0  0  0  0  0
   -1.3296   -1.7994    0.2019 H   0  0  0  0  0  0  0  0  0  0  0  0
  1 13  1  0  0  0  0
  1 11  1  0  0  0  0
  2 14  1  0  0  0  0
  2  1  1  0  0  0  0
  3 16  1  0  0  0  0
  3  2  1  0  0  0  0
  4  2  1  0  0  0  0
  4 18  1  0  0  0  0
  5  4  1  0  0  0  0
  6  8  1  0  0  0  0
  6  5  1  0  0  0  0
  7  6  2  0  0  0  0
  8 10  1  0  0  0  0
  8  9  1  0  0  0  0
  9 21  1  0  0  0  0
 10 26  1  0  0  0  0
 12  1  1  0  0  0  0
 15  3  1  0  0  0  0
 17  3  1  0  0  0  0
 19  4  1  0  0  0  0
 20  8  1  0  0  0  0
 22  9  1  0  0  0  0
 23  9  1  0  0  0  0
 24 10  1  0  0  0  0
 25 10  1  0  0  0  0
M  END
>  <Charge>
0.0

>  <InChI>
1/C8H16O2/c1-6(2)5-10-8(9)7(3)4/h6-7H,5H2,1-4H3

>  <Molecular Formula>
C_{8}H_{16}O_{2}

>  <Name>
ISOBUTYL ISOBUTYRATE

>  <SMILES>
CC(C)COC(=O)C(C)C

>  <logK (HEXADECANE)>
3.88

>  <mean polarizability>
16.33

>  <dipole moment>
1.98411736843

$$$$
375
 OpenBabel08101817183D

 18 17  0  0  1  0  0  0  0  0999 V2000
    2.5272   -0.6954    0.0959 C   0  0  0  0  0  0  0  0  0  0  0  0
    1.3361    0.2390    0.3116 C   0  0  0  0  0  0  0  0  0  0  0  0
    0.0014   -0.3903   -0.0931 C   0  0  0  0  0  0  0  0  0  0  0  0
   -1.2200    0.5071    0.1352 C   0  0  2  0  0  0  0  0  0  0  0  0
   -2.5193   -0.1779   -0.2569 C   0  0  0  0  0  0  0  0  0  0  0  0
   -1.1561    1.7180   -0.6408 O   0  0  0  0  0  0  0  0  0  0  0  0
    3.4729   -0.2174    0.3850 H   0  0  0  0  0  0  0  0  0  0  0  0
    2.4220   -1.6149    0.6893 H   0  0  0  0  0  0  0  0  0  0  0  0
    2.6113   -0.9912   -0.9596 H   0  0  0  0  0  0  0  0  0  0  0  0
    1.5046    1.1623   -0.2684 H   0  0  0  0  0  0  0  0  0  0  0  0
    1.2910    0.5408    1.3716 H   0  0  0  0  0  0  0  0  0  0  0  0
    0.0311   -0.6766   -1.1576 H   0  0  0  0  0  0  0  0  0  0  0  0
   -0.1465   -1.3199    0.4821 H   0  0  0  0  0  0  0  0  0  0  0  0
   -1.2630    0.7705    1.2113 H   0  0  0  0  0  0  0  0  0  0  0  0
   -2.5069   -0.4287   -1.3268 H   0  0  0  0  0  0  0  0  0  0  0  0
   -2.6595   -1.1033    0.3169 H   0  0  0  0  0  0  0  0  0  0  0  0
   -3.3750    0.4827   -0.0693 H   0  0  0  0  0  0  0  0  0  0  0  0
   -0.3514    2.1950   -0.3864 H   0  0  0  0  0  0  0  0  0  0  0  0
  1  2  1  0  0  0  0
  1  7  1  0  0  0  0
  1  8  1  0  0  0  0
  2 11  1  0  0  0  0
  3  4  1  0  0  0  0
  3  2  1  0  0  0  0
  3 13  1  0  0  0  0
  4 14  1  1  0  0  0
  5 17  1  0  0  0  0
  5  4  1  0  0  0  0
  5 16  1  0  0  0  0
  6 18  1  0  0  0  0
  6  4  1  0  0  0  0
  9  1  1  0  0  0  0
 10  2  1  0  0  0  0
 12  3  1  0  0  0  0
 15  5  1  0  0  0  0
M  END
>  <Charge>
0.0

>  <InChI>
1/C5H12O/c1-3-4-5(2)6/h5-6H,3-4H2,1-2H3

>  <Molecular Formula>
C_{5}H_{12}O

>  <Name>
2-PENTANOL

>  <SMILES>
CCCC(C)O

>  <logK (CARBON TETRACHLORIDE)>
3.45

>  <logK (HEXADECANE)>
2.84

>  <mean polarizability>
10.76

>  <dipole moment>
1.67149372113

>  <experimental polarizability source>
@Article{Bosque2002, Title = {Polarizabilities of Solvents from the Chemical Composition}, Author = {Bosque, Ramon and Sales, Joaquim}, Journal = {Journal of Chemical Information and Computer Sciences}, Year = {2002}, Note = {PMID: 12377003}, Number = {5}, Pages = {1154-1163}, Volume = {42}, Doi = {10.1021/ci025528x}, Url = {https://doi.org/10.1021/ci025528x}}

>  <Formula>
C5H12O

$$$$
376
 OpenBabel08101817183D

 18 17  0  0  1  0  0  0  0  0999 V2000
   -1.7952   -0.8847   -0.8072 C   0  0  0  0  0  0  0  0  0  0  0  0
   -1.0847   -0.2182    0.3711 C   0  0  0  0  0  0  0  0  0  0  0  0
    0.1446    0.6275   -0.0077 C   0  0  1  0  0  0  0  0  0  0  0  0
    0.6855    1.3872    1.2090 C   0  0  0  0  0  0  0  0  0  0  0  0
    1.2458   -0.1945   -0.6790 C   0  0  0  0  0  0  0  0  0  0  0  0
    1.6900   -1.2156    0.2265 O   0  0  0  0  0  0  0  0  0  0  0  0
   -2.7057   -1.4016   -0.4753 H   0  0  0  0  0  0  0  0  0  0  0  0
   -2.0924   -0.1463   -1.5668 H   0  0  0  0  0  0  0  0  0  0  0  0
   -1.1596   -1.6332   -1.2996 H   0  0  0  0  0  0  0  0  0  0  0  0
   -0.7741   -0.9830    1.0989 H   0  0  0  0  0  0  0  0  0  0  0  0
   -1.7955    0.4378    0.8982 H   0  0  0  0  0  0  0  0  0  0  0  0
   -0.1739    1.3667   -0.7654 H   0  0  0  0  0  0  0  0  0  0  0  0
   -0.0924    2.0262    1.6491 H   0  0  0  0  0  0  0  0  0  0  0  0
    1.5347    2.0293    0.9349 H   0  0  0  0  0  0  0  0  0  0  0  0
    1.0294    0.6886    1.9830 H   0  0  0  0  0  0  0  0  0  0  0  0
    0.8666   -0.6456   -1.6130 H   0  0  0  0  0  0  0  0  0  0  0  0
    2.0829    0.4763   -0.9470 H   0  0  0  0  0  0  0  0  0  0  0  0
    2.3939   -1.7166   -0.2096 H   0  0  0  0  0  0  0  0  0  0  0  0
  1  7  1  0  0  0  0
  1  2  1  0  0  0  0
  2 11  1  0  0  0  0
  2 10  1  0  0  0  0
  3 12  1  6  0  0  0
  3  2  1  0  0  0  0
  3  4  1  0  0  0  0
  4 13  1  0  0  0  0
  4 15  1  0  0  0  0
  5  3  1  0  0  0  0
  5  6  1  0  0  0  0
  8  1  1  0  0  0  0
  9  1  1  0  0  0  0
 14  4  1  0  0  0  0
 16  5  1  0  0  0  0
 17  5  1  0  0  0  0
 18  6  1  0  0  0  0
M  END
>  <Charge>
0.0

>  <InChI>
1/C5H12O/c1-3-5(2)4-6/h5-6H,3-4H2,1-2H3

>  <Molecular Formula>
C_{5}H_{12}O

>  <Name>
2-METHYLBUTAN-1-OL

>  <SMILES>
CCC(C)CO

>  <logK (HEXADECANE)>
3.011

>  <mean polarizability>
10.56

>  <dipole moment>
1.34914364476

>  <Formula>
C5H12O

$$$$
377
 OpenBabel08101817183D

 16 16  0  0  0  0  0  0  0  0999 V2000
   -1.2646   -0.5873    0.1489 C   0  0  0  0  0  0  0  0  0  0  0  0
   -0.9242    0.8806    0.4640 C   0  0  0  0  0  0  0  0  0  0  0  0
    0.3226    1.1349   -0.3929 C   0  0  0  0  0  0  0  0  0  0  0  0
    1.1588   -0.1439   -0.2117 C   0  0  0  0  0  0  0  0  0  0  0  0
    0.1049   -1.2779   -0.0819 C   0  0  0  0  0  0  0  0  0  0  0  0
    2.0311   -0.0668    0.9289 O   0  0  0  0  0  0  0  0  0  0  0  0
   -1.8682   -0.6301   -0.7695 H   0  0  0  0  0  0  0  0  0  0  0  0
   -1.8554   -1.0681    0.9391 H   0  0  0  0  0  0  0  0  0  0  0  0
   -0.6842    1.0024    1.5339 H   0  0  0  0  0  0  0  0  0  0  0  0
   -1.7505    1.5702    0.2485 H   0  0  0  0  0  0  0  0  0  0  0  0
    0.0275    1.2308   -1.4503 H   0  0  0  0  0  0  0  0  0  0  0  0
    0.8939    2.0315   -0.1209 H   0  0  0  0  0  0  0  0  0  0  0  0
    1.8440   -0.3115   -1.0522 H   0  0  0  0  0  0  0  0  0  0  0  0
    0.3913   -1.9298    0.7546 H   0  0  0  0  0  0  0  0  0  0  0  0
    0.0913   -1.9107   -0.9792 H   0  0  0  0  0  0  0  0  0  0  0  0
    1.4816    0.0756    1.7163 H   0  0  0  0  0  0  0  0  0  0  0  0
  1  2  1  0  0  0  0
  1  8  1  0  0  0  0
  2  9  1  0  0  0  0
  3  4  1  0  0  0  0
  3 12  1  0  0  0  0
  3  2  1  0  0  0  0
  4  5  1  0  0  0  0
  4  6  1  0  0  0  0
  5  1  1  0  0  0  0
  5 14  1  0  0  0  0
  6 16  1  0  0  0  0
  7  1  1  0  0  0  0
 10  2  1  0  0  0  0
 11  3  1  0  0  0  0
 13  4  1  0  0  0  0
 15  5  1  0  0  0  0
M  END
>  <Charge>
0.0

>  <InChI>
1/C5H10O/c6-5-3-1-2-4-5/h5-6H,1-4H2

>  <Molecular Formula>
C_{5}H_{10}O

>  <Name>
CYCLOPENTANOL

>  <SMILES>
C1CCC(C1)O

>  <logK (1,4-DIOXANE)>
4.64

>  <logK (ACETONE)>
4.6

>  <logK (HEXADECANE)>
3.27

>  <mean polarizability>
9.74

>  <dipole moment>
1.77114407737

$$$$
378
 OpenBabel08101817183D

 10  9  0  0  0  0  0  0  0  0999 V2000
    1.5565    0.1468    0.0123 C   0  0  0  0  0  0  0  0  0  0  0  0
    0.4013   -0.5023   -0.1557 C   0  0  0  0  0  0  0  0  0  0  0  0
   -0.9051   -0.0544    0.4245 C   0  0  0  0  0  0  0  0  0  0  0  0
   -1.9012    0.1664   -0.5865 O   0  0  0  0  0  0  0  0  0  0  0  0
    1.6107    1.0579    0.6127 H   0  0  0  0  0  0  0  0  0  0  0  0
    2.4870   -0.2089   -0.4302 H   0  0  0  0  0  0  0  0  0  0  0  0
    0.3635   -1.4095   -0.7662 H   0  0  0  0  0  0  0  0  0  0  0  0
   -1.3303   -0.8370    1.0705 H   0  0  0  0  0  0  0  0  0  0  0  0
   -0.7565    0.8483    1.0442 H   0  0  0  0  0  0  0  0  0  0  0  0
   -1.5258    0.7929   -1.2255 H   0  0  0  0  0  0  0  0  0  0  0  0
  1  5  1  0  0  0  0
  2  1  2  0  0  0  0
  2  3  1  0  0  0  0
  3  9  1  0  0  0  0
  3  8  1  0  0  0  0
  4  3  1  0  0  0  0
  6  1  1  0  0  0  0
  7  2  1  0  0  0  0
 10  4  1  0  0  0  0
M  END
>  <Charge>
0.0

>  <InChI>
1/C3H6O/c1-2-3-4/h2,4H,1,3H2

>  <Molecular Formula>
C_{3}H_{6}O

>  <Name>
ALLYL ALCOHOL

>  <SMILES>
C=CCO

>  <logK (5,8,11,14-TETRAOXAOCTADECANE)>
3.449

>  <logK (CARBON TETRACHLORIDE)>
2.6

>  <logK (CHLOROFORM)>
3.18

>  <logK (DIETHYLENE GLYCOL DIBUTYL ETHER)>
3.4

>  <logK (HEXADECANE)>
1.996

>  <logK (N,N-DIBUTYLFORMAMID)>
3.97

>  <logK (N,N-DIMETHYLACETAMIDE)>
3.44

>  <logK (N-METHYLACETAMIDE)>
4.3

>  <logK (SULFOLANE)>
3.698

>  <logK (TETRAETHYLENE GLYCOL DIMETHYL ETHER)>
3.662

>  <mean polarizability>
6.81

>  <dipole moment>
1.50773931485

>  <experimental polarizability source>
@Article{Bosque2002, Title = {Polarizabilities of Solvents from the Chemical Composition}, Author = {Bosque, Ramon and Sales, Joaquim}, Journal = {Journal of Chemical Information and Computer Sciences}, Year = {2002}, Note = {PMID: 12377003}, Number = {5}, Pages = {1154-1163}, Volume = {42}, Doi = {10.1021/ci025528x}, Url = {https://doi.org/10.1021/ci025528x}}

>  <Formula>
C3H6O

$$$$
379
 OpenBabel08101817183D

 13 13  0  0  0  0  0  0  0  0999 V2000
   -1.6530   -0.1369   -0.1678 C   0  0  0  0  0  0  0  0  0  0  0  0
   -0.8445   -1.2221    0.1731 C   0  0  0  0  0  0  0  0  0  0  0  0
    0.5360   -1.0635    0.3033 C   0  0  0  0  0  0  0  0  0  0  0  0
    1.1147    0.1928    0.0905 C   0  0  0  0  0  0  0  0  0  0  0  0
    0.3112    1.2860   -0.2515 C   0  0  0  0  0  0  0  0  0  0  0  0
   -1.0657    1.1141   -0.3783 C   0  0  0  0  0  0  0  0  0  0  0  0
    2.4644    0.4114    0.2035 O   0  0  0  0  0  0  0  0  0  0  0  0
   -2.7300   -0.2639   -0.2686 H   0  0  0  0  0  0  0  0  0  0  0  0
   -1.2873   -2.2041    0.3406 H   0  0  0  0  0  0  0  0  0  0  0  0
    1.1660   -1.9153    0.5703 H   0  0  0  0  0  0  0  0  0  0  0  0
    0.7797    2.2562   -0.4131 H   0  0  0  0  0  0  0  0  0  0  0  0
   -1.6866    1.9696   -0.6449 H   0  0  0  0  0  0  0  0  0  0  0  0
    2.8954   -0.4244    0.4430 H   0  0  0  0  0  0  0  0  0  0  0  0
  1  2  2  0  0  0  0
  2  3  1  0  0  0  0
  2  9  1  0  0  0  0
  3 10  1  0  0  0  0
  4  7  1  0  0  0  0
  4  3  2  0  0  0  0
  5  4  1  0  0  0  0
  6  5  2  0  0  0  0
  6  1  1  0  0  0  0
  7 13  1  0  0  0  0
  8  1  1  0  0  0  0
 11  5  1  0  0  0  0
 12  6  1  0  0  0  0
M  END
>  <Charge>
0.0

>  <InChI>
1/C6H6O/c7-6-4-2-1-3-5-6/h1-5,7H

>  <Molecular Formula>
C_{6}H_{6}O

>  <Name>
PHENOL

>  <SMILES>
c1ccc(cc1)O

>  <logK (CARBON TETRACHLORIDE)>
4.55

>  <logK (HEXADECANE)>
3.856

>  <mean polarizability>
11.05

>  <dipole moment>
1.25246316395

$$$$
380
 OpenBabel08101817183D

 15 15  0  0  0  0  0  0  0  0999 V2000
   -1.1875   -1.4560    0.1969 C   0  0  0  0  0  0  0  0  0  0  0  0
   -1.9219   -0.2984   -0.0816 C   0  0  0  0  0  0  0  0  0  0  0  0
   -1.2720    0.9137   -0.2701 C   0  0  0  0  0  0  0  0  0  0  0  0
    0.1275    1.0186   -0.1888 C   0  0  0  0  0  0  0  0  0  0  0  0
    0.8594   -0.1581    0.0932 C   0  0  0  0  0  0  0  0  0  0  0  0
    0.1946   -1.3745    0.2814 C   0  0  0  0  0  0  0  0  0  0  0  0
    2.3322   -0.1741    0.2033 N   0  0  0  0  0  0  0  0  0  0  0  0
    2.8675   -1.2603    0.4536 O   0  0  0  0  0  0  0  0  0  0  0  0
    2.9412    0.8833    0.0424 O   0  0  0  0  0  0  0  0  0  0  0  0
    0.7419    2.2106   -0.3761 O   0  0  0  0  0  0  0  0  0  0  0  0
   -1.6891   -2.4104    0.3459 H   0  0  0  0  0  0  0  0  0  0  0  0
   -3.0087   -0.3392   -0.1527 H   0  0  0  0  0  0  0  0  0  0  0  0
   -1.8475    1.8165   -0.4876 H   0  0  0  0  0  0  0  0  0  0  0  0
    0.8079   -2.2469    0.4956 H   0  0  0  0  0  0  0  0  0  0  0  0
    0.0546    2.8753   -0.5553 H   0  0  0  0  0  0  0  0  0  0  0  0
  1  6  1  0  0  0  0
  1 11  1  0  0  0  0
  2  1  2  0  0  0  0
  3  4  2  0  0  0  0
  3  2  1  0  0  0  0
  4  5  1  0  0  0  0
  5  7  1  0  0  0  0
  5  6  2  0  0  0  0
  6 14  1  0  0  0  0
  7  8  2  0  0  0  0
  9  7  2  0  0  0  0
 10  4  1  0  0  0  0
 12  2  1  0  0  0  0
 13  3  1  0  0  0  0
 15 10  1  0  0  0  0
M  END
>  <Charge>
0.0

>  <InChI>
1/C6H5NO3/c8-6-4-2-1-3-5(6)7(9)10/h1-4,8H

>  <Molecular Formula>
C_{6}H_{5}NO_{3}

>  <Name>
2-NITROPHENOL

>  <SMILES>
c1ccc(c(c1)[N+](=O)[O-])O

>  <logK (CHLOROFORM)>
5.89

>  <logK (HEXADECANE)>
4.684

>  <dipole moment>
5.7954108968

>  <mean polarizability>
14.21

$$$$
381
 OpenBabel08101817183D

 13 13  0  0  0  0  0  0  0  0999 V2000
   -0.9325   -1.1685   -0.3918 C   0  0  0  0  0  0  0  0  0  0  0  0
   -1.6871   -0.0704    0.0221 C   0  0  0  0  0  0  0  0  0  0  0  0
   -1.0408    1.0997    0.4225 C   0  0  0  0  0  0  0  0  0  0  0  0
    0.3509    1.1750    0.4104 C   0  0  0  0  0  0  0  0  0  0  0  0
    1.1187    0.0733   -0.0052 C   0  0  0  0  0  0  0  0  0  0  0  0
    0.4595   -1.0953   -0.4046 C   0  0  0  0  0  0  0  0  0  0  0  0
    2.4778    0.1904   -0.0015 O   0  0  0  0  0  0  0  0  0  0  0  0
    1.1494    2.6334    0.9096 Cl  0  0  0  0  0  0  0  0  0  0  0  0
   -1.4244   -2.0882   -0.7068 H   0  0  0  0  0  0  0  0  0  0  0  0
   -2.7749   -0.1188    0.0354 H   0  0  0  0  0  0  0  0  0  0  0  0
   -1.6088    1.9693    0.7496 H   0  0  0  0  0  0  0  0  0  0  0  0
    1.0533   -1.9534   -0.7282 H   0  0  0  0  0  0  0  0  0  0  0  0
    2.8590   -0.6468   -0.3114 H   0  0  0  0  0  0  0  0  0  0  0  0
  1  2  1  0  0  0  0
  2 10  1  0  0  0  0
  2  3  2  0  0  0  0
  3 11  1  0  0  0  0
  4  3  1  0  0  0  0
  4  8  1  0  0  0  0
  5  7  1  0  0  0  0
  5  4  2  0  0  0  0
  6  1  2  0  0  0  0
  6  5  1  0  0  0  0
  9  1  1  0  0  0  0
 12  6  1  0  0  0  0
 13  7  1  0  0  0  0
M  END
>  <Charge>
0.0

>  <InChI>
1/C6H5ClO/c7-5-3-1-2-4-6(5)8/h1-4,8H

>  <Molecular Formula>
C_{6}H_{5}ClO

>  <Name>
2-CHLOROPHENOL

>  <SMILES>
c1ccc(c(c1)O)Cl

>  <logK (CARBON TETRACHLORIDE)>
4.53

>  <logK (HEXADECANE)>
4.937

>  <mean polarizability>
13.37

>  <dipole moment>
2.63458311152

$$$$
382
 OpenBabel08101817183D

 11 10  0  0  0  0  0  0  0  0999 V2000
   -1.4426    0.0389   -0.0081 C   0  0  0  0  0  0  0  0  0  0  0  0
    0.0041   -0.3221   -0.3231 C   0  0  0  0  0  0  0  0  0  0  0  0
    1.0104    0.4654    0.5036 C   0  0  0  0  0  0  0  0  0  0  0  0
    0.7329    1.2956    1.3325 O   0  0  0  0  0  0  0  0  0  0  0  0
    2.3274    0.1744    0.2493 O   0  0  0  0  0  0  0  0  0  0  0  0
   -1.6732   -0.1539    1.0462 H   0  0  0  0  0  0  0  0  0  0  0  0
   -1.6279    1.1033   -0.1946 H   0  0  0  0  0  0  0  0  0  0  0  0
   -2.1308   -0.5484   -0.6286 H   0  0  0  0  0  0  0  0  0  0  0  0
    0.1885   -1.3956   -0.1500 H   0  0  0  0  0  0  0  0  0  0  0  0
    0.2296   -0.1462   -1.3883 H   0  0  0  0  0  0  0  0  0  0  0  0
    2.3816   -0.5114   -0.4387 H   0  0  0  0  0  0  0  0  0  0  0  0
  1  6  1  0  0  0  0
  2  9  1  0  0  0  0
  2  1  1  0  0  0  0
  2  3  1  0  0  0  0
  3  4  2  0  0  0  0
  5  3  1  0  0  0  0
  7  1  1  0  0  0  0
  8  1  1  0  0  0  0
 10  2  1  0  0  0  0
 11  5  1  0  0  0  0
M  END
>  <Charge>
0.0

>  <InChI>
1/C3H6O2/c1-2-3(4)5/h2H2,1H3,(H,4,5)

>  <Molecular Formula>
C_{3}H_{6}O_{2}

>  <Name>
PROPIONIC ACID

>  <SMILES>
CCC(=O)O

>  <logK (ACETOPHENONE)>
4.92

>  <logK (CARBON TETRACHLORIDE)>
2.92

>  <logK (CHLOROBENZENE)>
3.2

>  <logK (CHLOROFORM)>
3.68

>  <logK (DICHLOROETHANE)>
3.75

>  <logK (HEXADECANE)>
2.29

>  <mean polarizability>
7.02

>  <dipole moment>
4.13794972439

$$$$
383
 OpenBabel08101817183D

 14 13  0  0  0  0  0  0  0  0999 V2000
   -1.5804    0.7505    0.2913 C   0  0  0  0  0  0  0  0  0  0  0  0
   -0.8773   -0.2619   -0.6124 C   0  0  0  0  0  0  0  0  0  0  0  0
    0.6479   -0.1559   -0.5676 C   0  0  0  0  0  0  0  0  0  0  0  0
    1.2570   -0.6540    0.7370 C   0  0  0  0  0  0  0  0  0  0  0  0
    0.6828   -1.3160    1.5657 O   0  0  0  0  0  0  0  0  0  0  0  0
    2.5757   -0.3285    0.9274 O   0  0  0  0  0  0  0  0  0  0  0  0
   -1.3148    1.7821    0.0170 H   0  0  0  0  0  0  0  0  0  0  0  0
   -1.3095    0.5956    1.3435 H   0  0  0  0  0  0  0  0  0  0  0  0
   -2.6713    0.6574    0.2111 H   0  0  0  0  0  0  0  0  0  0  0  0
   -1.1621   -1.2822   -0.3196 H   0  0  0  0  0  0  0  0  0  0  0  0
   -1.2040   -0.1246   -1.6537 H   0  0  0  0  0  0  0  0  0  0  0  0
    1.1001   -0.7582   -1.3737 H   0  0  0  0  0  0  0  0  0  0  0  0
    0.9696    0.8843   -0.7464 H   0  0  0  0  0  0  0  0  0  0  0  0
    2.8862    0.2116    0.1803 H   0  0  0  0  0  0  0  0  0  0  0  0
  1  8  1  0  0  0  0
  2  3  1  0  0  0  0
  2 10  1  0  0  0  0
  2  1  1  0  0  0  0
  3  4  1  0  0  0  0
  4  6  1  0  0  0  0
  4  5  2  0  0  0  0
  7  1  1  0  0  0  0
  9  1  1  0  0  0  0
 11  2  1  0  0  0  0
 12  3  1  0  0  0  0
 13  3  1  0  0  0  0
 14  6  1  0  0  0  0
M  END
>  <Charge>
0.0

>  <InChI>
1/C4H8O2/c1-2-3-4(5)6/h2-3H2,1H3,(H,5,6)

>  <Molecular Formula>
C_{4}H_{8}O_{2}

>  <Name>
BUTANOIC ACID

>  <SMILES>
CCCC(=O)O

>  <logK (1-HEXADECENE)>
2.885

>  <logK (CARBON TETRACHLORIDE)>
3.52

>  <logK (CHLOROFORM)>
4.39

>  <logK (DICHLOROETHANE)>
4.47

>  <logK (HEXADECANE)>
2.83

>  <mean polarizability>
8.86

>  <dipole moment>
4.01947868785

$$$$
384
 OpenBabel08101817183D

 17 16  0  0  0  0  0  0  0  0999 V2000
   -2.3407    0.7063   -0.5786 C   0  0  0  0  0  0  0  0  0  0  0  0
   -1.1568    0.2116    0.2514 C   0  0  0  0  0  0  0  0  0  0  0  0
   -0.0685   -0.4446   -0.6020 C   0  0  0  0  0  0  0  0  0  0  0  0
    1.1248   -0.9496    0.2077 C   0  0  0  0  0  0  0  0  0  0  0  0
    2.0040    0.1549    0.7512 C   0  0  0  0  0  0  0  0  0  0  0  0
    2.0329    1.3051    0.3666 O   0  0  0  0  0  0  0  0  0  0  0  0
    2.8231   -0.3034    1.7443 O   0  0  0  0  0  0  0  0  0  0  0  0
   -2.0205    1.4575   -1.3145 H   0  0  0  0  0  0  0  0  0  0  0  0
   -2.8137   -0.1186   -1.1312 H   0  0  0  0  0  0  0  0  0  0  0  0
   -3.1107    1.1677    0.0540 H   0  0  0  0  0  0  0  0  0  0  0  0
   -0.7201    1.0552    0.8074 H   0  0  0  0  0  0  0  0  0  0  0  0
   -1.5095   -0.5109    1.0061 H   0  0  0  0  0  0  0  0  0  0  0  0
    0.2890    0.2737   -1.3550 H   0  0  0  0  0  0  0  0  0  0  0  0
   -0.5006   -1.2938   -1.1542 H   0  0  0  0  0  0  0  0  0  0  0  0
    1.7812   -1.5796   -0.4154 H   0  0  0  0  0  0  0  0  0  0  0  0
    0.8098   -1.5910    1.0443 H   0  0  0  0  0  0  0  0  0  0  0  0
    3.3763    0.4589    2.0043 H   0  0  0  0  0  0  0  0  0  0  0  0
  1 10  1  0  0  0  0
  1  2  1  0  0  0  0
  2 11  1  0  0  0  0
  2 12  1  0  0  0  0
  3  4  1  0  0  0  0
  3  2  1  0  0  0  0
  4  5  1  0  0  0  0
  4 16  1  0  0  0  0
  5  7  1  0  0  0  0
  6  5  2  0  0  0  0
  7 17  1  0  0  0  0
  8  1  1  0  0  0  0
  9  1  1  0  0  0  0
 13  3  1  0  0  0  0
 14  3  1  0  0  0  0
 15  4  1  0  0  0  0
M  END
>  <Charge>
0.0

>  <InChI>
1/C5H10O2/c1-2-3-4-5(6)7/h2-4H2,1H3,(H,6,7)

>  <Molecular Formula>
C_{5}H_{10}O_{2}

>  <Name>
VALERIC ACID

>  <SMILES>
CCCCC(=O)O

>  <logK (ACETOPHENONE)>
5.7

>  <logK (CARBON TETRACHLORIDE)>
4.1

>  <logK (CHLOROFORM)>
4.84

>  <logK (DICHLOROETHANE)>
4.75

>  <logK (HEXADECANE)>
3.38

>  <logK (TOLUENE)>
4.32

>  <mean polarizability>
10.81

>  <dipole moment>
1.46761701005

$$$$
385
 OpenBabel08101817183D

 20 19  0  0  0  0  0  0  0  0999 V2000
   -2.7723   -0.3365   -1.2000 C   0  0  0  0  0  0  0  0  0  0  0  0
   -1.6371    0.5925   -0.7709 C   0  0  0  0  0  0  0  0  0  0  0  0
   -0.5043   -0.1371   -0.0459 C   0  0  0  0  0  0  0  0  0  0  0  0
    0.6335    0.7900    0.3869 C   0  0  0  0  0  0  0  0  0  0  0  0
    1.7725    0.0699    1.1241 C   0  0  0  0  0  0  0  0  0  0  0  0
    2.5062   -0.9955    0.3205 C   0  0  0  0  0  0  0  0  0  0  0  0
    2.7564   -2.1059    0.7213 O   0  0  0  0  0  0  0  0  0  0  0  0
    2.9216   -0.6187   -0.9311 O   0  0  0  0  0  0  0  0  0  0  0  0
   -2.4073   -1.1245   -1.8740 H   0  0  0  0  0  0  0  0  0  0  0  0
   -3.5636    0.2128   -1.7272 H   0  0  0  0  0  0  0  0  0  0  0  0
   -3.2311   -0.8312   -0.3321 H   0  0  0  0  0  0  0  0  0  0  0  0
   -2.0350    1.3856   -0.1167 H   0  0  0  0  0  0  0  0  0  0  0  0
   -1.2278    1.1070   -1.6561 H   0  0  0  0  0  0  0  0  0  0  0  0
   -0.9065   -0.6494    0.8440 H   0  0  0  0  0  0  0  0  0  0  0  0
   -0.1077   -0.9333   -0.6977 H   0  0  0  0  0  0  0  0  0  0  0  0
    1.0210    1.3335   -0.4952 H   0  0  0  0  0  0  0  0  0  0  0  0
    0.2384    1.5755    1.0500 H   0  0  0  0  0  0  0  0  0  0  0  0
    1.3944   -0.4280    2.0254 H   0  0  0  0  0  0  0  0  0  0  0  0
    2.5268    0.8028    1.4550 H   0  0  0  0  0  0  0  0  0  0  0  0
    2.6217    0.2904   -1.1103 H   0  0  0  0  0  0  0  0  0  0  0  0
  1  2  1  0  0  0  0
  1 11  1  0  0  0  0
  2 12  1  0  0  0  0
  2  3  1  0  0  0  0
  3  4  1  0  0  0  0
  3 14  1  0  0  0  0
  4 17  1  0  0  0  0
  4  5  1  0  0  0  0
  5 19  1  0  0  0  0
  5 18  1  0  0  0  0
  6  7  2  0  0  0  0
  6  5  1  0  0  0  0
  8  6  1  0  0  0  0
  9  1  1  0  0  0  0
 10  1  1  0  0  0  0
 13  2  1  0  0  0  0
 15  3  1  0  0  0  0
 16  4  1  0  0  0  0
 20  8  1  0  0  0  0
M  END
>  <Charge>
0.0

>  <InChI>
1/C6H12O2/c1-2-3-4-5-6(7)8/h2-5H2,1H3,(H,7,8)

>  <Molecular Formula>
C_{6}H_{12}O_{2}

>  <Name>
1-HEXANOIC ACID

>  <SMILES>
CCCCCC(=O)O

>  <logK (ACETOPHENONE)>
6.17

>  <logK (CHLOROFORM)>
5.58

>  <logK (DICHLOROETHANE)>
5.13

>  <logK (HEXADECANE)>
3.92

>  <dipole moment>
4.51407379729

>  <mean polarizability>
12.66

$$$$
386
 OpenBabel08101817183D

 23 22  0  0  0  0  0  0  0  0999 V2000
    3.5862    0.3818    0.1633 C   0  0  0  0  0  0  0  0  0  0  0  0
    2.4912   -0.6394   -0.1443 C   0  0  0  0  0  0  0  0  0  0  0  0
    1.1086   -0.0079   -0.3242 C   0  0  0  0  0  0  0  0  0  0  0  0
    0.0107   -1.0307   -0.6310 C   0  0  0  0  0  0  0  0  0  0  0  0
   -1.3751   -0.4316   -0.8972 C   0  0  0  0  0  0  0  0  0  0  0  0
   -1.9906    0.2505    0.3222 C   0  0  0  0  0  0  0  0  0  0  0  0
   -3.3927    0.7605    0.0863 C   0  0  0  0  0  0  0  0  0  0  0  0
   -4.0313    0.6671   -0.9406 O   0  0  0  0  0  0  0  0  0  0  0  0
   -3.8936    1.3651    1.2061 O   0  0  0  0  0  0  0  0  0  0  0  0
    3.3698    0.9294    1.0920 H   0  0  0  0  0  0  0  0  0  0  0  0
    4.5660   -0.0998    0.2823 H   0  0  0  0  0  0  0  0  0  0  0  0
    3.6756    1.1237   -0.6433 H   0  0  0  0  0  0  0  0  0  0  0  0
    2.7532   -1.1996   -1.0567 H   0  0  0  0  0  0  0  0  0  0  0  0
    2.4448   -1.3860    0.6655 H   0  0  0  0  0  0  0  0  0  0  0  0
    0.8575    0.5589    0.5879 H   0  0  0  0  0  0  0  0  0  0  0  0
    1.1513    0.7337   -1.1407 H   0  0  0  0  0  0  0  0  0  0  0  0
    0.3117   -1.6161   -1.5146 H   0  0  0  0  0  0  0  0  0  0  0  0
   -0.0559   -1.7542    0.2002 H   0  0  0  0  0  0  0  0  0  0  0  0
   -1.3167    0.2912   -1.7253 H   0  0  0  0  0  0  0  0  0  0  0  0
   -2.0584   -1.2214   -1.2399 H   0  0  0  0  0  0  0  0  0  0  0  0
   -2.0315   -0.4373    1.1828 H   0  0  0  0  0  0  0  0  0  0  0  0
   -1.3866    1.1038    0.6665 H   0  0  0  0  0  0  0  0  0  0  0  0
   -4.7944    1.6583    0.9674 H   0  0  0  0  0  0  0  0  0  0  0  0
  1 11  1  0  0  0  0
  1 10  1  0  0  0  0
  2  1  1  0  0  0  0
  2 14  1  0  0  0  0
  3  2  1  0  0  0  0
  3 15  1  0  0  0  0
  4  3  1  0  0  0  0
  4 18  1  0  0  0  0
  5  4  1  0  0  0  0
  5  6  1  0  0  0  0
  6 22  1  0  0  0  0
  6 21  1  0  0  0  0
  7  6  1  0  0  0  0
  7  9  1  0  0  0  0
  8  7  2  0  0  0  0
 12  1  1  0  0  0  0
 13  2  1  0  0  0  0
 16  3  1  0  0  0  0
 17  4  1  0  0  0  0
 19  5  1  0  0  0  0
 20  5  1  0  0  0  0
 23  9  1  0  0  0  0
M  END
>  <Charge>
0.0

>  <InChI>
1/C7H14O2/c1-2-3-4-5-6-7(8)9/h2-6H2,1H3,(H,8,9)

>  <Molecular Formula>
C_{7}H_{14}O_{2}

>  <Name>
N-HEPTANOIC ACID

>  <SMILES>
CCCCCCC(=O)O

>  <logK (HEXADECANE)>
4.46

>  <dipole moment>
1.61175680206

$$$$
387
 OpenBabel08101817183D

 26 25  0  0  0  0  0  0  0  0999 V2000
   -3.7625    0.6429   -1.0451 C   0  0  0  0  0  0  0  0  0  0  0  0
   -2.3604    0.6742   -0.4365 C   0  0  0  0  0  0  0  0  0  0  0  0
   -1.9918   -0.6297    0.2780 C   0  0  0  0  0  0  0  0  0  0  0  0
   -0.6197   -0.6202    0.9637 C   0  0  0  0  0  0  0  0  0  0  0  0
    0.5737   -0.5803    0.0050 C   0  0  0  0  0  0  0  0  0  0  0  0
    1.9192   -0.5812    0.7337 C   0  0  0  0  0  0  0  0  0  0  0  0
    3.1322   -0.6036   -0.2100 C   0  0  0  0  0  0  0  0  0  0  0  0
    3.2422    0.6002   -1.1173 C   0  0  0  0  0  0  0  0  0  0  0  0
    3.3465    0.5752   -2.3259 O   0  0  0  0  0  0  0  0  0  0  0  0
    3.2293    1.7728   -0.4134 O   0  0  0  0  0  0  0  0  0  0  0  0
   -4.5257    0.4601   -0.2746 H   0  0  0  0  0  0  0  0  0  0  0  0
   -4.0100    1.5911   -1.5409 H   0  0  0  0  0  0  0  0  0  0  0  0
   -3.8525   -0.1572   -1.7939 H   0  0  0  0  0  0  0  0  0  0  0  0
   -2.2882    1.5078    0.2819 H   0  0  0  0  0  0  0  0  0  0  0  0
   -1.6263    0.8903   -1.2280 H   0  0  0  0  0  0  0  0  0  0  0  0
   -2.0342   -1.4645   -0.4429 H   0  0  0  0  0  0  0  0  0  0  0  0
   -2.7651   -0.8451    1.0335 H   0  0  0  0  0  0  0  0  0  0  0  0
   -0.5641    0.2426    1.6497 H   0  0  0  0  0  0  0  0  0  0  0  0
   -0.5305   -1.5170    1.5986 H   0  0  0  0  0  0  0  0  0  0  0  0
    0.5238   -1.4492   -0.6734 H   0  0  0  0  0  0  0  0  0  0  0  0
    0.5097    0.3117   -0.6383 H   0  0  0  0  0  0  0  0  0  0  0  0
    1.9861    0.2982    1.3912 H   0  0  0  0  0  0  0  0  0  0  0  0
    1.9814   -1.4651    1.3877 H   0  0  0  0  0  0  0  0  0  0  0  0
    4.0579   -0.6463    0.3853 H   0  0  0  0  0  0  0  0  0  0  0  0
    3.1124   -1.4880   -0.8585 H   0  0  0  0  0  0  0  0  0  0  0  0
    3.3166    2.4801   -1.0814 H   0  0  0  0  0  0  0  0  0  0  0  0
  1  2  1  0  0  0  0
  1 11  1  0  0  0  0
  2  3  1  0  0  0  0
  2 14  1  0  0  0  0
  3  4  1  0  0  0  0
  3 17  1  0  0  0  0
  4 19  1  0  0  0  0
  4 18  1  0  0  0  0
  5  6  1  0  0  0  0
  5  4  1  0  0  0  0
  6 23  1  0  0  0  0
  6 22  1  0  0  0  0
  7 24  1  0  0  0  0
  7  6  1  0  0  0  0
  8 10  1  0  0  0  0
  8  7  1  0  0  0  0
  9  8  2  0  0  0  0
 12  1  1  0  0  0  0
 13  1  1  0  0  0  0
 15  2  1  0  0  0  0
 16  3  1  0  0  0  0
 20  5  1  0  0  0  0
 21  5  1  0  0  0  0
 25  7  1  0  0  0  0
 26 10  1  0  0  0  0
M  END
>  <Charge>
0.0

>  <InChI>
1/C8H16O2/c1-2-3-4-5-6-7-8(9)10/h2-7H2,1H3,(H,9,10)

>  <Molecular Formula>
C_{8}H_{16}O_{2}

>  <Name>
CAPRYLIC ACID

>  <SMILES>
CCCCCCCC(=O)O

>  <logK (CHLOROFORM)>
6.61

>  <logK (HEXADECANE)>
5.0

>  <dipole moment>
1.8782015255

>  <mean polarizability>
16.46

$$$$
388
 OpenBabel08101817183D

 17 16  0  0  0  0  0  0  0  0999 V2000
   -1.7192   -0.4565   -0.7287 C   0  0  0  0  0  0  0  0  0  0  0  0
   -0.4280    0.2097   -0.2432 C   0  0  0  0  0  0  0  0  0  0  0  0
   -0.6382    0.9299    1.0918 C   0  0  0  0  0  0  0  0  0  0  0  0
    0.7016   -0.8368   -0.1467 C   0  0  0  0  0  0  0  0  0  0  0  0
    2.0584   -0.2936    0.2740 C   0  0  0  0  0  0  0  0  0  0  0  0
    2.7080   -0.7047    1.2041 O   0  0  0  0  0  0  0  0  0  0  0  0
    2.5533    0.7293   -0.4954 O   0  0  0  0  0  0  0  0  0  0  0  0
   -1.5812   -0.9484   -1.7015 H   0  0  0  0  0  0  0  0  0  0  0  0
   -2.0552   -1.2193   -0.0110 H   0  0  0  0  0  0  0  0  0  0  0  0
   -2.5264    0.2810   -0.8330 H   0  0  0  0  0  0  0  0  0  0  0  0
   -0.1462    0.9669   -0.9998 H   0  0  0  0  0  0  0  0  0  0  0  0
   -0.9202    0.2124    1.8762 H   0  0  0  0  0  0  0  0  0  0  0  0
   -1.4414    1.6747    1.0133 H   0  0  0  0  0  0  0  0  0  0  0  0
    0.2706    1.4479    1.4268 H   0  0  0  0  0  0  0  0  0  0  0  0
    0.4326   -1.6117    0.5828 H   0  0  0  0  0  0  0  0  0  0  0  0
    0.8250   -1.3367   -1.1221 H   0  0  0  0  0  0  0  0  0  0  0  0
    1.9066    0.9557   -1.1874 H   0  0  0  0  0  0  0  0  0  0  0  0
  1  2  1  0  0  0  0
  1  9  1  0  0  0  0
  2  4  1  0  0  0  0
  2  3  1  0  0  0  0
  3 14  1  0  0  0  0
  3 12  1  0  0  0  0
  4  5  1  0  0  0  0
  4 15  1  0  0  0  0
  5  6  2  0  0  0  0
  7  5  1  0  0  0  0
  8  1  1  0  0  0  0
 10  1  1  0  0  0  0
 11  2  1  0  0  0  0
 13  3  1  0  0  0  0
 16  4  1  0  0  0  0
 17  7  1  0  0  0  0
M  END
>  <Charge>
0.0

>  <InChI>
1/C5H10O2/c1-4(2)3-5(6)7/h4H,3H2,1-2H3,(H,6,7)

>  <Molecular Formula>
C_{5}H_{10}O_{2}

>  <Name>
3-METHYLBUTANOIC ACID

>  <SMILES>
CC(C)CC(=O)O

>  <logK (CARBON TETRACHLORIDE)>
3.94

>  <logK (CHLOROFORM)>
4.66

>  <logK (HEXADECANE)>
3.3

>  <mean polarizability>
10.76

>  <dipole moment>
4.51064394374

$$$$
389
 OpenBabel08101817183D

 16 15  0  0  0  0  0  0  0  0999 V2000
   -0.8362   -0.9750   -0.6904 C   0  0  0  0  0  0  0  0  0  0  0  0
    0.0726   -0.0204    0.1081 C   0  0  0  0  0  0  0  0  0  0  0  0
    1.2014    0.4968   -0.7924 C   0  0  0  0  0  0  0  0  0  0  0  0
   -0.7530    1.1558    0.6444 C   0  0  0  0  0  0  0  0  0  0  0  0
    0.7051   -0.6801    1.2711 N   0  0  0  0  0  0  0  0  0  0  0  0
   -0.2603   -1.8314   -1.0708 H   0  0  0  0  0  0  0  0  0  0  0  0
   -1.2999   -0.4714   -1.5519 H   0  0  0  0  0  0  0  0  0  0  0  0
   -1.6438   -1.3652   -0.0537 H   0  0  0  0  0  0  0  0  0  0  0  0
    0.7971    1.0324   -1.6619 H   0  0  0  0  0  0  0  0  0  0  0  0
    1.8560    1.1767   -0.2321 H   0  0  0  0  0  0  0  0  0  0  0  0
    1.8151   -0.3359   -1.1677 H   0  0  0  0  0  0  0  0  0  0  0  0
   -1.2232    1.7136   -0.1767 H   0  0  0  0  0  0  0  0  0  0  0  0
   -1.5543    0.8002    1.3095 H   0  0  0  0  0  0  0  0  0  0  0  0
   -0.1146    1.8412    1.2167 H   0  0  0  0  0  0  0  0  0  0  0  0
    1.2548   -1.4828    0.9565 H   0  0  0  0  0  0  0  0  0  0  0  0
   -0.0167   -1.0544    1.8911 H   0  0  0  0  0  0  0  0  0  0  0  0
  1  8  1  0  0  0  0
  1  2  1  0  0  0  0
  2  4  1  0  0  0  0
  2  5  1  0  0  0  0
  3 10  1  0  0  0  0
  3  2  1  0  0  0  0
  4 14  1  0  0  0  0
  4 13  1  0  0  0  0
  5 16  1  0  0  0  0
  6  1  1  0  0  0  0
  7  1  1  0  0  0  0
  9  3  1  0  0  0  0
 11  3  1  0  0  0  0
 12  4  1  0  0  0  0
 15  5  1  0  0  0  0
M  END
>  <Charge>
0.0

>  <InChI>
1/C4H11N/c1-4(2,3)5/h5H2,1-3H3

>  <Molecular Formula>
C_{4}H_{11}N

>  <Name>
TERT-BUTYLAMINE

>  <SMILES>
CC(C)(C)N

>  <logK (HEXADECANE)>
2.493

>  <mean polarizability>
9.58

>  <dipole moment>
1.16748039227

$$$$
390
 OpenBabel08101817183D

 22 21  0  0  0  0  0  0  0  0999 V2000
   -2.0033   -0.9188    0.3624 C   0  0  0  0  0  0  0  0  0  0  0  0
   -1.1836    0.0998   -0.4368 C   0  0  0  0  0  0  0  0  0  0  0  0
   -2.0438    1.3059   -0.8352 C   0  0  0  0  0  0  0  0  0  0  0  0
    0.0134    0.5520    0.2970 N   0  0  0  0  0  0  0  0  0  0  0  0
    1.3176    0.1173   -0.2157 C   0  0  0  0  0  0  0  0  0  0  0  0
    1.5479   -1.4041   -0.1883 C   0  0  0  0  0  0  0  0  0  0  0  0
    2.4161    0.8477    0.5561 C   0  0  0  0  0  0  0  0  0  0  0  0
   -2.3429   -0.4732    1.3107 H   0  0  0  0  0  0  0  0  0  0  0  0
   -2.8995   -1.2355   -0.1892 H   0  0  0  0  0  0  0  0  0  0  0  0
   -1.4119   -1.8135    0.5990 H   0  0  0  0  0  0  0  0  0  0  0  0
   -0.8412   -0.3897   -1.3646 H   0  0  0  0  0  0  0  0  0  0  0  0
   -1.4507    2.0255   -1.4135 H   0  0  0  0  0  0  0  0  0  0  0  0
   -2.4130    1.8230    0.0622 H   0  0  0  0  0  0  0  0  0  0  0  0
   -2.9112    1.0001   -1.4387 H   0  0  0  0  0  0  0  0  0  0  0  0
   -0.0643    0.3078    1.2852 H   0  0  0  0  0  0  0  0  0  0  0  0
    1.3600    0.4509   -1.2669 H   0  0  0  0  0  0  0  0  0  0  0  0
    0.7668   -1.9423   -0.7421 H   0  0  0  0  0  0  0  0  0  0  0  0
    2.5161   -1.6692   -0.6381 H   0  0  0  0  0  0  0  0  0  0  0  0
    1.5456   -1.7735    0.8489 H   0  0  0  0  0  0  0  0  0  0  0  0
    2.3925    0.5647    1.6201 H   0  0  0  0  0  0  0  0  0  0  0  0
    3.4113    0.5914    0.1690 H   0  0  0  0  0  0  0  0  0  0  0  0
    2.2778    1.9339    0.4917 H   0  0  0  0  0  0  0  0  0  0  0  0
  1 10  1  0  0  0  0
  1  8  1  0  0  0  0
  2  4  1  0  0  0  0
  2  1  1  0  0  0  0
  3  2  1  0  0  0  0
  3 13  1  0  0  0  0
  4 15  1  0  0  0  0
  5  6  1  0  0  0  0
  5  4  1  0  0  0  0
  5  7  1  0  0  0  0
  6 19  1  0  0  0  0
  7 20  1  0  0  0  0
  9  1  1  0  0  0  0
 11  2  1  0  0  0  0
 12  3  1  0  0  0  0
 14  3  1  0  0  0  0
 16  5  1  0  0  0  0
 17  6  1  0  0  0  0
 18  6  1  0  0  0  0
 21  7  1  0  0  0  0
 22  7  1  0  0  0  0
M  END
>  <Charge>
0.0

>  <InChI>
1/C6H15N/c1-5(2)7-6(3)4/h5-7H,1-4H3

>  <Molecular Formula>
C_{6}H_{15}N

>  <Name>
DIISOPROPYLAMINE

>  <SMILES>
CC(C)NC(C)C

>  <logK (CHLOROFORM)>
3.97

>  <logK (HEXADECANE)>
2.893

>  <mean polarizability>
13.47

>  <dipole moment>
0.921211670922

$$$$
391
 OpenBabel08101817183D

 20 20  0  0  0  0  0  0  0  0999 V2000
   -1.9492    1.3463   -0.3769 C   0  0  0  0  0  0  0  0  0  0  0  0
   -1.2432    0.0839   -0.4355 N   0  0  0  0  0  0  0  0  0  0  0  0
   -1.9086   -1.0882   -0.9631 C   0  0  0  0  0  0  0  0  0  0  0  0
    0.0586   -0.0037    0.0199 C   0  0  0  0  0  0  0  0  0  0  0  0
    0.7688   -1.2283   -0.0173 C   0  0  0  0  0  0  0  0  0  0  0  0
    2.0815   -1.3054    0.4411 C   0  0  0  0  0  0  0  0  0  0  0  0
    2.7373   -0.1831    0.9508 C   0  0  0  0  0  0  0  0  0  0  0  0
    2.0457    1.0291    0.9935 C   0  0  0  0  0  0  0  0  0  0  0  0
    0.7329    1.1279    0.5397 C   0  0  0  0  0  0  0  0  0  0  0  0
   -2.9577    1.2133   -0.7808 H   0  0  0  0  0  0  0  0  0  0  0  0
   -1.4471    2.1291   -0.9711 H   0  0  0  0  0  0  0  0  0  0  0  0
   -2.0449    1.7200    0.6572 H   0  0  0  0  0  0  0  0  0  0  0  0
   -2.9196   -0.8149   -1.2811 H   0  0  0  0  0  0  0  0  0  0  0  0
   -1.3796   -1.5048   -1.8375 H   0  0  0  0  0  0  0  0  0  0  0  0
   -1.9953   -1.8909   -0.2101 H   0  0  0  0  0  0  0  0  0  0  0  0
    0.2935   -2.1262   -0.4060 H   0  0  0  0  0  0  0  0  0  0  0  0
    2.5983   -2.2648    0.3944 H   0  0  0  0  0  0  0  0  0  0  0  0
    3.7643   -0.2519    1.3064 H   0  0  0  0  0  0  0  0  0  0  0  0
    2.5348    1.9213    1.3866 H   0  0  0  0  0  0  0  0  0  0  0  0
    0.2296    2.0910    0.5899 H   0  0  0  0  0  0  0  0  0  0  0  0
  1 12  1  0  0  0  0
  2  1  1  0  0  0  0
  2  4  1  0  0  0  0
  3  2  1  0  0  0  0
  3 15  1  0  0  0  0
  4  9  1  0  0  0  0
  5  4  2  0  0  0  0
  5  6  1  0  0  0  0
  6  7  2  0  0  0  0
  7  8  1  0  0  0  0
  7 18  1  0  0  0  0
  8 19  1  0  0  0  0
  9 20  1  0  0  0  0
  9  8  2  0  0  0  0
 10  1  1  0  0  0  0
 11  1  1  0  0  0  0
 13  3  1  0  0  0  0
 14  3  1  0  0  0  0
 16  5  1  0  0  0  0
 17  6  1  0  0  0  0
M  END
>  <Charge>
0.0

>  <InChI>
1/C8H11N/c1-9(2)8-6-4-3-5-7-8/h3-7H,1-2H3

>  <Molecular Formula>
C_{8}H_{11}N

>  <Name>
N,N-DIMETHYLANILINE

>  <SMILES>
CN(C)c1ccccc1

>  <logK (CHLOROFORM)>
6.01

>  <logK (HEXADECANE)>
4.754

>  <mean polarizability>
16.38

>  <dipole moment>
2.31597626118

$$$$
392
 OpenBabel08101817183D

 17 17  0  0  0  0  0  0  0  0999 V2000
   -2.5383    0.5879    0.5043 C   0  0  0  0  0  0  0  0  0  0  0  0
   -1.5707   -0.5903    0.4975 C   0  0  0  0  0  0  0  0  0  0  0  0
   -0.1136   -0.2302    0.2884 C   0  0  0  0  0  0  0  0  0  0  0  0
    0.8631   -1.2408    0.2647 C   0  0  0  0  0  0  0  0  0  0  0  0
    2.1964   -0.8985    0.0725 C   0  0  0  0  0  0  0  0  0  0  0  0
    2.5269    0.4485   -0.0925 C   0  0  0  0  0  0  0  0  0  0  0  0
    1.4949    1.3824   -0.0551 C   0  0  0  0  0  0  0  0  0  0  0  0
    0.2041    1.0640    0.1299 N   0  0  0  0  0  0  0  0  0  0  0  0
   -3.5661    0.2348    0.6610 H   0  0  0  0  0  0  0  0  0  0  0  0
   -2.5004    1.1391   -0.4432 H   0  0  0  0  0  0  0  0  0  0  0  0
   -2.2904    1.3014    1.2996 H   0  0  0  0  0  0  0  0  0  0  0  0
   -1.8594   -1.3111   -0.2856 H   0  0  0  0  0  0  0  0  0  0  0  0
   -1.6510   -1.1499    1.4443 H   0  0  0  0  0  0  0  0  0  0  0  0
    0.5698   -2.2834    0.3974 H   0  0  0  0  0  0  0  0  0  0  0  0
    2.9685   -1.6684    0.0512 H   0  0  0  0  0  0  0  0  0  0  0  0
    3.5575    0.7670   -0.2460 H   0  0  0  0  0  0  0  0  0  0  0  0
    1.7084    2.4476   -0.1797 H   0  0  0  0  0  0  0  0  0  0  0  0
  1  9  1  0  0  0  0
  1 11  1  0  0  0  0
  2  1  1  0  0  0  0
  2 13  1  0  0  0  0
  3  2  1  0  0  0  0
  4  3  1  0  0  0  0
  4 14  1  0  0  0  0
  5  4  2  0  0  0  0
  6  7  2  0  0  0  0
  6  5  1  0  0  0  0
  7  8  1  0  0  0  0
  8  3  2  0  0  0  0
 10  1  1  0  0  0  0
 12  2  1  0  0  0  0
 15  5  1  0  0  0  0
 16  6  1  0  0  0  0
 17  7  1  0  0  0  0
M  END
>  <Charge>
0.0

>  <InChI>
1/C7H9N/c1-2-7-5-3-4-6-8-7/h3-6H,2H2,1H3

>  <Molecular Formula>
C_{7}H_{9}N

>  <Name>
ETHYLPYRIDINE

>  <SMILES>
CCc1ccccn1

>  <logK (CHLOROFORM)>
5.44

>  <logK (HEXADECANE)>
3.9

>  <mean polarizability>
13.44

>  <dipole moment>
1.7853058983

$$$$
393
 OpenBabel08101817183D

 17 17  0  0  0  0  0  0  0  0999 V2000
    2.3625    0.5295    0.0232 C   0  0  0  0  0  0  0  0  0  0  0  0
    1.4534   -0.6883    0.2490 C   0  0  0  0  0  0  0  0  0  0  0  0
   -0.0031   -0.3814    0.0116 C   0  0  0  0  0  0  0  0  0  0  0  0
   -0.8059    0.2149    0.9907 C   0  0  0  0  0  0  0  0  0  0  0  0
   -2.1368    0.5081    0.7021 C   0  0  0  0  0  0  0  0  0  0  0  0
   -2.6301    0.1960   -0.5658 C   0  0  0  0  0  0  0  0  0  0  0  0
   -1.8878   -0.3799   -1.5215 N   0  0  0  0  0  0  0  0  0  0  0  0
   -0.6117   -0.6547   -1.2219 C   0  0  0  0  0  0  0  0  0  0  0  0
    3.4146    0.2737    0.2071 H   0  0  0  0  0  0  0  0  0  0  0  0
    2.0911    1.3550    0.6952 H   0  0  0  0  0  0  0  0  0  0  0  0
    2.2761    0.8986   -1.0075 H   0  0  0  0  0  0  0  0  0  0  0  0
    1.5863   -1.0571    1.2775 H   0  0  0  0  0  0  0  0  0  0  0  0
    1.7646   -1.5050   -0.4193 H   0  0  0  0  0  0  0  0  0  0  0  0
   -0.3906    0.4425    1.9748 H   0  0  0  0  0  0  0  0  0  0  0  0
   -2.7862    0.9672    1.4476 H   0  0  0  0  0  0  0  0  0  0  0  0
   -3.6687    0.4134   -0.8275 H   0  0  0  0  0  0  0  0  0  0  0  0
   -0.0274   -1.1326   -2.0153 H   0  0  0  0  0  0  0  0  0  0  0  0
  1  9  1  0  0  0  0
  1  2  1  0  0  0  0
  1 10  1  0  0  0  0
  2 12  1  0  0  0  0
  3  2  1  0  0  0  0
  3  4  2  0  0  0  0
  4 14  1  0  0  0  0
  5  4  1  0  0  0  0
  5 15  1  0  0  0  0
  6  5  2  0  0  0  0
  7  8  2  0  0  0  0
  7  6  1  0  0  0  0
  8  3  1  0  0  0  0
 11  1  1  0  0  0  0
 13  2  1  0  0  0  0
 16  6  1  0  0  0  0
 17  8  1  0  0  0  0
M  END
>  <Charge>
0.0

>  <InChI>
1/C7H9N/c1-2-7-4-3-5-8-6-7/h3-6H,2H2,1H3

>  <Molecular Formula>
C_{7}H_{9}N

>  <Name>
3-ETHYLPYRIDINE

>  <SMILES>
CCc1cccnc1

>  <logK (HEXADECANE)>
4.13

>  <mean polarizability>
13.47

>  <dipole moment>
2.50551722737

$$$$
394
 OpenBabel08101817183D

 17 17  0  0  0  0  0  0  0  0999 V2000
    2.2935   -0.0701   -0.5787 C   0  0  0  0  0  0  0  0  0  0  0  0
    1.4105    0.2814    0.6291 C   0  0  0  0  0  0  0  0  0  0  0  0
   -0.0575    0.1066    0.3367 C   0  0  0  0  0  0  0  0  0  0  0  0
   -0.7143   -1.1080    0.5655 C   0  0  0  0  0  0  0  0  0  0  0  0
   -2.0654   -1.2310    0.2404 C   0  0  0  0  0  0  0  0  0  0  0  0
   -2.7996   -0.2428   -0.2906 N   0  0  0  0  0  0  0  0  0  0  0  0
   -2.1686    0.9202   -0.5078 C   0  0  0  0  0  0  0  0  0  0  0  0
   -0.8227    1.1407   -0.2156 C   0  0  0  0  0  0  0  0  0  0  0  0
    2.0546    0.5693   -1.4394 H   0  0  0  0  0  0  0  0  0  0  0  0
    2.1429   -1.1134   -0.8872 H   0  0  0  0  0  0  0  0  0  0  0  0
    3.3562    0.0651   -0.3381 H   0  0  0  0  0  0  0  0  0  0  0  0
    1.6904   -0.3523    1.4836 H   0  0  0  0  0  0  0  0  0  0  0  0
    1.6006    1.3226    0.9284 H   0  0  0  0  0  0  0  0  0  0  0  0
   -0.1794   -1.9543    1.0005 H   0  0  0  0  0  0  0  0  0  0  0  0
   -2.5891   -2.1738    0.4207 H   0  0  0  0  0  0  0  0  0  0  0  0
   -2.7760    1.7226   -0.9352 H   0  0  0  0  0  0  0  0  0  0  0  0
   -0.3758    2.1170   -0.4121 H   0  0  0  0  0  0  0  0  0  0  0  0
  1 11  1  0  0  0  0
  1  2  1  0  0  0  0
  2 13  1  0  0  0  0
  2 12  1  0  0  0  0
  3  4  1  0  0  0  0
  3  2  1  0  0  0  0
  4 14  1  0  0  0  0
  5 15  1  0  0  0  0
  5  4  2  0  0  0  0
  6  5  1  0  0  0  0
  7  6  2  0  0  0  0
  7  8  1  0  0  0  0
  8  3  2  0  0  0  0
  9  1  1  0  0  0  0
 10  1  1  0  0  0  0
 16  7  1  0  0  0  0
 17  8  1  0  0  0  0
M  END
>  <Charge>
0.0

>  <InChI>
1/C7H9N/c1-2-7-3-5-8-6-4-7/h3-6H,2H2,1H3

>  <Molecular Formula>
C_{7}H_{9}N

>  <Name>
4-ETHYLPYRIDINE

>  <SMILES>
CCc1ccncc1

>  <logK (HEXADECANE)>
4.14

>  <mean polarizability>
13.45

>  <dipole moment>
2.81860360289

$$$$
395
 OpenBabel08101817183D

 17 17  0  0  0  0  0  0  0  0999 V2000
   -2.3192   -1.0300   -0.2007 C   0  0  0  0  0  0  0  0  0  0  0  0
   -1.1043   -0.1676    0.0055 C   0  0  0  0  0  0  0  0  0  0  0  0
   -1.2062    1.1629    0.4274 C   0  0  0  0  0  0  0  0  0  0  0  0
   -0.0423    1.9092    0.5998 C   0  0  0  0  0  0  0  0  0  0  0  0
    1.1925    1.4339    0.3862 N   0  0  0  0  0  0  0  0  0  0  0  0
    1.3037    0.1554   -0.0199 C   0  0  0  0  0  0  0  0  0  0  0  0
    0.1835   -0.6631   -0.2172 C   0  0  0  0  0  0  0  0  0  0  0  0
    2.6959   -0.3671   -0.2565 C   0  0  0  0  0  0  0  0  0  0  0  0
   -2.2869   -1.9180    0.4466 H   0  0  0  0  0  0  0  0  0  0  0  0
   -2.3752   -1.3909   -1.2375 H   0  0  0  0  0  0  0  0  0  0  0  0
   -3.2434   -0.4823    0.0192 H   0  0  0  0  0  0  0  0  0  0  0  0
   -2.1807    1.6138    0.6198 H   0  0  0  0  0  0  0  0  0  0  0  0
   -0.1016    2.9503    0.9289 H   0  0  0  0  0  0  0  0  0  0  0  0
    0.3221   -1.6951   -0.5476 H   0  0  0  0  0  0  0  0  0  0  0  0
    3.4268    0.4209   -0.0485 H   0  0  0  0  0  0  0  0  0  0  0  0
    2.8233   -0.7025   -1.2958 H   0  0  0  0  0  0  0  0  0  0  0  0
    2.9119   -1.2297    0.3902 H   0  0  0  0  0  0  0  0  0  0  0  0
  1  2  1  0  0  0  0
  1 11  1  0  0  0  0
  1  9  1  0  0  0  0
  2  3  2  0  0  0  0
  3  4  1  0  0  0  0
  3 12  1  0  0  0  0
  4 13  1  0  0  0  0
  5  4  2  0  0  0  0
  6  5  1  0  0  0  0
  7  6  2  0  0  0  0
  7  2  1  0  0  0  0
  8 15  1  0  0  0  0
  8  6  1  0  0  0  0
  8 17  1  0  0  0  0
 10  1  1  0  0  0  0
 14  7  1  0  0  0  0
 16  8  1  0  0  0  0
M  END
>  <Charge>
0.0

>  <InChI>
1/C7H9N/c1-6-3-4-8-7(2)5-6/h3-5H,1-2H3

>  <Molecular Formula>
C_{7}H_{9}N

>  <Name>
2,4-LUTIDINE

>  <SMILES>
Cc1ccnc(c1)C

>  <logK (HEXADECANE)>
4.05

>  <mean polarizability>
13.7

>  <dipole moment>
2.41774709607

$$$$
396
 OpenBabel08101817183D

 17 17  0  0  0  0  0  0  0  0999 V2000
    2.8380   -0.0751   -0.0008 C   0  0  0  0  0  0  0  0  0  0  0  0
    1.3337   -0.0475    0.0135 C   0  0  0  0  0  0  0  0  0  0  0  0
    0.5889    0.7464   -0.8649 C   0  0  0  0  0  0  0  0  0  0  0  0
   -0.8011    0.7295   -0.8036 C   0  0  0  0  0  0  0  0  0  0  0  0
   -1.4404   -0.0856    0.1410 C   0  0  0  0  0  0  0  0  0  0  0  0
   -0.7374   -0.8543    0.9923 N   0  0  0  0  0  0  0  0  0  0  0  0
    0.5990   -0.8248    0.9181 C   0  0  0  0  0  0  0  0  0  0  0  0
   -2.9411   -0.1377    0.2454 C   0  0  0  0  0  0  0  0  0  0  0  0
    3.2412    0.5932   -0.7718 H   0  0  0  0  0  0  0  0  0  0  0  0
    3.2542    0.2393    0.9670 H   0  0  0  0  0  0  0  0  0  0  0  0
    3.2187   -1.0868   -0.2010 H   0  0  0  0  0  0  0  0  0  0  0  0
    1.0996    1.3765   -1.5959 H   0  0  0  0  0  0  0  0  0  0  0  0
   -1.3923    1.3442   -1.4839 H   0  0  0  0  0  0  0  0  0  0  0  0
    1.1256   -1.4675    1.6316 H   0  0  0  0  0  0  0  0  0  0  0  0
   -3.2323   -0.8308    1.0412 H   0  0  0  0  0  0  0  0  0  0  0  0
   -3.3594    0.8540    0.4703 H   0  0  0  0  0  0  0  0  0  0  0  0
   -3.3946   -0.4731   -0.6984 H   0  0  0  0  0  0  0  0  0  0  0  0
  1  2  1  0  0  0  0
  1 10  1  0  0  0  0
  2  7  2  0  0  0  0
  3  4  2  0  0  0  0
  3  2  1  0  0  0  0
  4  5  1  0  0  0  0
  5  8  1  0  0  0  0
  5  6  2  0  0  0  0
  7  6  1  0  0  0  0
  7 14  1  0  0  0  0
  8 16  1  0  0  0  0
  8 15  1  0  0  0  0
  9  1  1  0  0  0  0
 11  1  1  0  0  0  0
 12  3  1  0  0  0  0
 13  4  1  0  0  0  0
 17  8  1  0  0  0  0
M  END
>  <Charge>
0.0

>  <InChI>
1/C7H9N/c1-6-3-4-7(2)8-5-6/h3-5H,1-2H3

>  <Molecular Formula>
C_{7}H_{9}N

>  <Name>
2,5-LUTIDINE

>  <SMILES>
Cc1ccc(nc1)C

>  <logK (HEXADECANE)>
4.05

>  <mean polarizability>
13.75

>  <dipole moment>
2.03302304244

$$$$
397
 OpenBabel08101817183D

 17 17  0  0  0  0  0  0  0  0999 V2000
   -0.0583    1.9333   -0.3411 C   0  0  0  0  0  0  0  0  0  0  0  0
    0.3886    0.5178   -0.1103 C   0  0  0  0  0  0  0  0  0  0  0  0
    1.7443    0.1766   -0.1134 C   0  0  0  0  0  0  0  0  0  0  0  0
    2.1298   -1.1457    0.1037 C   0  0  0  0  0  0  0  0  0  0  0  0
    1.2586   -2.1392    0.3213 N   0  0  0  0  0  0  0  0  0  0  0  0
   -0.0387   -1.8071    0.3232 C   0  0  0  0  0  0  0  0  0  0  0  0
   -0.5418   -0.5164    0.1173 C   0  0  0  0  0  0  0  0  0  0  0  0
   -2.0224   -0.2624    0.1418 C   0  0  0  0  0  0  0  0  0  0  0  0
   -0.7169    2.0067   -1.2195 H   0  0  0  0  0  0  0  0  0  0  0  0
    0.7971    2.6004   -0.4999 H   0  0  0  0  0  0  0  0  0  0  0  0
   -0.6355    2.3151    0.5142 H   0  0  0  0  0  0  0  0  0  0  0  0
    2.5017    0.9434   -0.2853 H   0  0  0  0  0  0  0  0  0  0  0  0
    3.1878   -1.4204    0.1029 H   0  0  0  0  0  0  0  0  0  0  0  0
   -0.7412   -2.6279    0.5021 H   0  0  0  0  0  0  0  0  0  0  0  0
   -2.3792    0.1534   -0.8126 H   0  0  0  0  0  0  0  0  0  0  0  0
   -2.5763   -1.1897    0.3326 H   0  0  0  0  0  0  0  0  0  0  0  0
   -2.2976    0.4619    0.9232 H   0  0  0  0  0  0  0  0  0  0  0  0
  1  2  1  0  0  0  0
  1 11  1  0  0  0  0
  2  7  1  0  0  0  0
  3  2  2  0  0  0  0
  3  4  1  0  0  0  0
  4  5  2  0  0  0  0
  5  6  1  0  0  0  0
  6 14  1  0  0  0  0
  7  8  1  0  0  0  0
  7  6  2  0  0  0  0
  8 16  1  0  0  0  0
  8 17  1  0  0  0  0
  9  1  1  0  0  0  0
 10  1  1  0  0  0  0
 12  3  1  0  0  0  0
 13  4  1  0  0  0  0
 15  8  1  0  0  0  0
M  END
>  <Charge>
0.0

>  <InChI>
1/C7H9N/c1-6-3-4-8-5-7(6)2/h3-5H,1-2H3

>  <Molecular Formula>
C_{7}H_{9}N

>  <Name>
3,4-DIMETHYLPYRIDINE

>  <SMILES>
Cc1ccncc1C

>  <logK (HEXADECANE)>
4.36

>  <mean polarizability>
13.5

>  <dipole moment>
3.00054414868

$$$$
398
 OpenBabel08101817183D

 17 17  0  0  0  0  0  0  0  0999 V2000
   -2.5487   -0.4817   -0.4298 C   0  0  0  0  0  0  0  0  0  0  0  0
   -1.2104    0.0503    0.0063 C   0  0  0  0  0  0  0  0  0  0  0  0
   -0.0099   -0.5319   -0.4023 C   0  0  0  0  0  0  0  0  0  0  0  0
    1.2173   -0.0107    0.0267 C   0  0  0  0  0  0  0  0  0  0  0  0
    1.1686    1.1027    0.8726 C   0  0  0  0  0  0  0  0  0  0  0  0
    0.0346    1.6880    1.2834 N   0  0  0  0  0  0  0  0  0  0  0  0
   -1.1175    1.1663    0.8537 C   0  0  0  0  0  0  0  0  0  0  0  0
    2.5271   -0.6119   -0.4028 C   0  0  0  0  0  0  0  0  0  0  0  0
   -3.1206    0.2787   -0.9804 H   0  0  0  0  0  0  0  0  0  0  0  0
   -2.4379   -1.3570   -1.0816 H   0  0  0  0  0  0  0  0  0  0  0  0
   -3.1600   -0.7797    0.4340 H   0  0  0  0  0  0  0  0  0  0  0  0
   -0.0302   -1.4031   -1.0624 H   0  0  0  0  0  0  0  0  0  0  0  0
    2.0988    1.5468    1.2402 H   0  0  0  0  0  0  0  0  0  0  0  0
   -2.0295    1.6611    1.2031 H   0  0  0  0  0  0  0  0  0  0  0  0
    2.5736   -1.6842   -0.1648 H   0  0  0  0  0  0  0  0  0  0  0  0
    3.3721   -0.1181    0.0930 H   0  0  0  0  0  0  0  0  0  0  0  0
    2.6726   -0.5157   -1.4888 H   0  0  0  0  0  0  0  0  0  0  0  0
  1  2  1  0  0  0  0
  1 11  1  0  0  0  0
  2  7  1  0  0  0  0
  3  2  2  0  0  0  0
  3  4  1  0  0  0  0
  4  5  2  0  0  0  0
  5 13  1  0  0  0  0
  5  6  1  0  0  0  0
  7 14  1  0  0  0  0
  7  6  2  0  0  0  0
  8 15  1  0  0  0  0
  8  4  1  0  0  0  0
  8 16  1  0  0  0  0
  9  1  1  0  0  0  0
 10  1  1  0  0  0  0
 12  3  1  0  0  0  0
 17  8  1  0  0  0  0
M  END
>  <Charge>
0.0

>  <InChI>
1/C7H9N/c1-6-3-7(2)5-8-4-6/h3-5H,1-2H3

>  <Molecular Formula>
C_{7}H_{9}N

>  <Name>
3,5-DIMETHYLPYRIDINE

>  <SMILES>
Cc1cc(cnc1)C

>  <logK (HEXADECANE)>
4.25

>  <mean polarizability>
13.66

>  <dipole moment>
2.61778772453

$$$$
399
 OpenBabel08101817183D

 23 23  0  0  0  0  0  0  0  0999 V2000
   -1.5201   -0.2834   -1.1477 C   0  0  0  0  0  0  0  0  0  0  0  0
   -0.9480    0.1839    0.2084 C   0  0  0  0  0  0  0  0  0  0  0  0
   -1.2912    1.6692    0.3964 C   0  0  0  0  0  0  0  0  0  0  0  0
   -1.6127   -0.6204    1.3467 C   0  0  0  0  0  0  0  0  0  0  0  0
    0.5630   -0.0685    0.2302 C   0  0  0  0  0  0  0  0  0  0  0  0
    1.0766   -1.3658    0.0743 C   0  0  0  0  0  0  0  0  0  0  0  0
    2.4526   -1.5788    0.0963 C   0  0  0  0  0  0  0  0  0  0  0  0
    3.3606   -0.6041    0.2612 N   0  0  0  0  0  0  0  0  0  0  0  0
    2.8731    0.6330    0.4101 C   0  0  0  0  0  0  0  0  0  0  0  0
    1.5112    0.9463    0.4020 C   0  0  0  0  0  0  0  0  0  0  0  0
   -1.0681    0.2742   -1.9793 H   0  0  0  0  0  0  0  0  0  0  0  0
   -1.3383   -1.3522   -1.3196 H   0  0  0  0  0  0  0  0  0  0  0  0
   -2.6066   -0.1180   -1.1748 H   0  0  0  0  0  0  0  0  0  0  0  0
   -0.9310    2.0531    1.3608 H   0  0  0  0  0  0  0  0  0  0  0  0
   -2.3815    1.8003    0.3737 H   0  0  0  0  0  0  0  0  0  0  0  0
   -0.8657    2.2915   -0.4030 H   0  0  0  0  0  0  0  0  0  0  0  0
   -2.6999   -0.4573    1.3374 H   0  0  0  0  0  0  0  0  0  0  0  0
   -1.2279   -0.3076    2.3270 H   0  0  0  0  0  0  0  0  0  0  0  0
   -1.4334   -1.6983    1.2419 H   0  0  0  0  0  0  0  0  0  0  0  0
    0.4133   -2.2201   -0.0654 H   0  0  0  0  0  0  0  0  0  0  0  0
    2.8515   -2.5894   -0.0253 H   0  0  0  0  0  0  0  0  0  0  0  0
    3.6121    1.4278    0.5445 H   0  0  0  0  0  0  0  0  0  0  0  0
    1.2105    1.9846    0.5310 H   0  0  0  0  0  0  0  0  0  0  0  0
  1  2  1  0  0  0  0
  2  5  1  0  0  0  0
  2  3  1  0  0  0  0
  2  4  1  0  0  0  0
  3 14  1  0  0  0  0
  4 18  1  0  0  0  0
  5 10  2  0  0  0  0
  6  7  2  0  0  0  0
  6  5  1  0  0  0  0
  7  8  1  0  0  0  0
  8  9  2  0  0  0  0
  9 22  1  0  0  0  0
 10  9  1  0  0  0  0
 10 23  1  0  0  0  0
 11  1  1  0  0  0  0
 12  1  1  0  0  0  0
 13  1  1  0  0  0  0
 15  3  1  0  0  0  0
 16  3  1  0  0  0  0
 17  4  1  0  0  0  0
 19  4  1  0  0  0  0
 20  6  1  0  0  0  0
 21  7  1  0  0  0  0
M  END
>  <Charge>
0.0

>  <InChI>
1/C9H13N/c1-9(2,3)8-4-6-10-7-5-8/h4-7H,1-3H3

>  <Molecular Formula>
C_{9}H_{13}N

>  <Name>
4-T-BUTYLPYRIDINE

>  <SMILES>
CC(C)(C)c1ccncc1

>  <logK (HEXADECANE)>
4.75

>  <dipole moment>
2.90923123206

>  <mean polarizability>
17.12

$$$$
400
 OpenBabel08101817183D

 19 18  0  0  0  0  0  0  0  0999 V2000
   -2.9992    0.1639   -0.1955 C   0  0  0  0  0  0  0  0  0  0  0  0
   -1.7416    0.1236    0.6715 C   0  0  0  0  0  0  0  0  0  0  0  0
   -0.4521    0.0114   -0.1462 C   0  0  0  0  0  0  0  0  0  0  0  0
    0.8025   -0.0096    0.7305 C   0  0  0  0  0  0  0  0  0  0  0  0
    2.0733   -0.1343   -0.1042 C   0  0  0  0  0  0  0  0  0  0  0  0
    3.2893   -0.2002    0.7961 N   0  0  0  0  0  0  0  0  0  0  0  0
    4.0308    0.7808    0.8279 O   0  0  0  0  0  0  0  0  0  0  0  0
    3.4353   -1.2297    1.4537 O   0  0  0  0  0  0  0  0  0  0  0  0
   -3.9062    0.2424    0.4181 H   0  0  0  0  0  0  0  0  0  0  0  0
   -2.9841    1.0248   -0.8789 H   0  0  0  0  0  0  0  0  0  0  0  0
   -3.0898   -0.7440   -0.8087 H   0  0  0  0  0  0  0  0  0  0  0  0
   -1.6939    1.0291    1.2975 H   0  0  0  0  0  0  0  0  0  0  0  0
   -1.7991   -0.7262    1.3704 H   0  0  0  0  0  0  0  0  0  0  0  0
   -0.4882   -0.9044   -0.7599 H   0  0  0  0  0  0  0  0  0  0  0  0
   -0.3962    0.8539   -0.8557 H   0  0  0  0  0  0  0  0  0  0  0  0
    0.8531    0.9127    1.3296 H   0  0  0  0  0  0  0  0  0  0  0  0
    0.7573   -0.8534    1.4339 H   0  0  0  0  0  0  0  0  0  0  0  0
    2.2273    0.7265   -0.7624 H   0  0  0  0  0  0  0  0  0  0  0  0
    2.0813   -1.0672   -0.6810 H   0  0  0  0  0  0  0  0  0  0  0  0
  1  9  1  0  0  0  0
  1  2  1  0  0  0  0
  2 12  1  0  0  0  0
  2 13  1  0  0  0  0
  3  2  1  0  0  0  0
  3  4  1  0  0  0  0
  4 16  1  0  0  0  0
  4 17  1  0  0  0  0
  5  4  1  0  0  0  0
  5  6  1  0  0  0  0
  6  7  2  0  0  0  0
  6  8  2  0  0  0  0
 10  1  1  0  0  0  0
 11  1  1  0  0  0  0
 14  3  1  0  0  0  0
 15  3  1  0  0  0  0
 18  5  1  0  0  0  0
 19  5  1  0  0  0  0
M  END
>  <Charge>
0.0

>  <InChI>
1/C5H11NO2/c1-2-3-4-5-6(7)8/h2-5H2,1H3

>  <Molecular Formula>
C_{5}H_{11}NO_{2}

>  <Name>
1-NITROPENTANE

>  <SMILES>
CCCCC[N+](=O)[O-]

>  <logK (HEXADECANE)>
3.82

>  <mean polarizability>
12.53

>  <dipole moment>
4.02461213263

$$$$
401
 OpenBabel08101817183D

 17 17  0  0  0  0  0  0  0  0999 V2000
   -1.9107    1.0054    0.2527 C   0  0  0  0  0  0  0  0  0  0  0  0
   -0.4968    0.5081    0.1377 C   0  0  0  0  0  0  0  0  0  0  0  0
    0.5617    1.4069    0.3454 C   0  0  0  0  0  0  0  0  0  0  0  0
    1.8976    1.0223    0.2525 C   0  0  0  0  0  0  0  0  0  0  0  0
    2.2270   -0.2937   -0.0779 C   0  0  0  0  0  0  0  0  0  0  0  0
    1.2084   -1.2080   -0.3169 C   0  0  0  0  0  0  0  0  0  0  0  0
   -0.1246   -0.8088   -0.1958 C   0  0  0  0  0  0  0  0  0  0  0  0
   -1.1413   -1.8555   -0.4463 N   0  0  0  0  0  0  0  0  0  0  0  0
   -2.2437   -1.7316    0.0942 O   0  0  0  0  0  0  0  0  0  0  0  0
   -0.8198   -2.7991   -1.1727 O   0  0  0  0  0  0  0  0  0  0  0  0
   -1.9133    2.1010    0.3015 H   0  0  0  0  0  0  0  0  0  0  0  0
   -2.3985    0.6107    1.1529 H   0  0  0  0  0  0  0  0  0  0  0  0
   -2.5318    0.6878   -0.5938 H   0  0  0  0  0  0  0  0  0  0  0  0
    0.3161    2.4419    0.5863 H   0  0  0  0  0  0  0  0  0  0  0  0
    2.6836    1.7555    0.4332 H   0  0  0  0  0  0  0  0  0  0  0  0
    3.2678   -0.6045   -0.1577 H   0  0  0  0  0  0  0  0  0  0  0  0
    1.4186   -2.2382   -0.5958 H   0  0  0  0  0  0  0  0  0  0  0  0
  1 11  1  0  0  0  0
  1 12  1  0  0  0  0
  2  1  1  0  0  0  0
  2  3  2  0  0  0  0
  3 14  1  0  0  0  0
  4  3  1  0  0  0  0
  4 15  1  0  0  0  0
  5  4  2  0  0  0  0
  6  7  2  0  0  0  0
  6  5  1  0  0  0  0
  7  2  1  0  0  0  0
  8  7  1  0  0  0  0
  8  9  2  0  0  0  0
 10  8  2  0  0  0  0
 13  1  1  0  0  0  0
 16  5  1  0  0  0  0
 17  6  1  0  0  0  0
M  END
>  <Charge>
0.0

>  <InChI>
1/C7H7NO2/c1-6-4-2-3-5-7(6)8(9)10/h2-5H,1H3

>  <Molecular Formula>
C_{7}H_{7}NO_{2}

>  <Name>
2-NITROTOLUENE

>  <SMILES>
Cc1ccccc1[N+](=O)[O-]

>  <logK (CARBON TETRACHLORIDE)>
5.49

>  <logK (CHLOROFORM)>
6.02

>  <logK (HEXADECANE)>
4.78

>  <mean polarizability>
15.18

>  <dipole moment>
4.21729619233

$$$$
402
 OpenBabel08101817183D

 17 17  0  0  0  0  0  0  0  0999 V2000
    2.4868   -0.2581    0.5112 C   0  0  0  0  0  0  0  0  0  0  0  0
    1.0626    0.1120    0.1929 C   0  0  0  0  0  0  0  0  0  0  0  0
    0.6862    1.4435   -0.0331 C   0  0  0  0  0  0  0  0  0  0  0  0
   -0.6360    1.7868   -0.3286 C   0  0  0  0  0  0  0  0  0  0  0  0
   -1.6183    0.8037   -0.4057 C   0  0  0  0  0  0  0  0  0  0  0  0
   -1.2374   -0.5180   -0.1800 C   0  0  0  0  0  0  0  0  0  0  0  0
    0.0741   -0.8767    0.1153 C   0  0  0  0  0  0  0  0  0  0  0  0
   -2.2672   -1.5835   -0.2572 N   0  0  0  0  0  0  0  0  0  0  0  0
   -3.4223   -1.2417   -0.5196 O   0  0  0  0  0  0  0  0  0  0  0  0
   -1.9061   -2.7447   -0.0539 O   0  0  0  0  0  0  0  0  0  0  0  0
    2.5575   -0.7571    1.4879 H   0  0  0  0  0  0  0  0  0  0  0  0
    2.8913   -0.9550   -0.2361 H   0  0  0  0  0  0  0  0  0  0  0  0
    3.1346    0.6262    0.5351 H   0  0  0  0  0  0  0  0  0  0  0  0
    1.4440    2.2263    0.0236 H   0  0  0  0  0  0  0  0  0  0  0  0
   -0.9012    2.8297   -0.4998 H   0  0  0  0  0  0  0  0  0  0  0  0
   -2.6562    1.0338   -0.6331 H   0  0  0  0  0  0  0  0  0  0  0  0
    0.3075   -1.9272    0.2813 H   0  0  0  0  0  0  0  0  0  0  0  0
  1 13  1  0  0  0  0
  1 11  1  0  0  0  0
  2  1  1  0  0  0  0
  3 14  1  0  0  0  0
  3  2  2  0  0  0  0
  4  3  1  0  0  0  0
  5  4  2  0  0  0  0
  5  6  1  0  0  0  0
  6  7  2  0  0  0  0
  7  2  1  0  0  0  0
  7 17  1  0  0  0  0
  8  6  1  0  0  0  0
  8 10  2  0  0  0  0
  9  8  2  0  0  0  0
 12  1  1  0  0  0  0
 15  4  1  0  0  0  0
 16  5  1  0  0  0  0
M  END
>  <Charge>
0.0

>  <InChI>
1/C7H7NO2/c1-6-3-2-4-7(5-6)8(9)10/h2-5H,1H3

>  <Molecular Formula>
C_{7}H_{7}NO_{2}

>  <Name>
3-NITROTOLUENE

>  <SMILES>
Cc1cccc(c1)[N+](=O)[O-]

>  <logK (CHLOROFORM)>
5.98

>  <logK (HEXADECANE)>
4.97

>  <mean polarizability>
15.29

>  <dipole moment>
4.85561544843

$$$$
403
 OpenBabel08101817183D

 17 17  0  0  0  0  0  0  0  0999 V2000
    2.7262    0.1007   -0.1664 C   0  0  0  0  0  0  0  0  0  0  0  0
    1.2267    0.0483   -0.0692 C   0  0  0  0  0  0  0  0  0  0  0  0
    0.5522    0.5877    1.0358 C   0  0  0  0  0  0  0  0  0  0  0  0
   -0.8367    0.5406    1.1285 C   0  0  0  0  0  0  0  0  0  0  0  0
   -1.5566   -0.0566    0.0971 C   0  0  0  0  0  0  0  0  0  0  0  0
   -0.9206   -0.6034   -1.0172 C   0  0  0  0  0  0  0  0  0  0  0  0
    0.4664   -0.5463   -1.0907 C   0  0  0  0  0  0  0  0  0  0  0  0
   -3.0310   -0.1122    0.1851 N   0  0  0  0  0  0  0  0  0  0  0  0
   -3.6394   -0.6471   -0.7454 O   0  0  0  0  0  0  0  0  0  0  0  0
   -3.5638    0.3802    1.1829 O   0  0  0  0  0  0  0  0  0  0  0  0
    3.1706    0.5941    0.7058 H   0  0  0  0  0  0  0  0  0  0  0  0
    3.1524   -0.9101   -0.2397 H   0  0  0  0  0  0  0  0  0  0  0  0
    3.0444    0.6472   -1.0658 H   0  0  0  0  0  0  0  0  0  0  0  0
    1.1255    1.0531    1.8383 H   0  0  0  0  0  0  0  0  0  0  0  0
   -1.3694    0.9559    1.9810 H   0  0  0  0  0  0  0  0  0  0  0  0
   -1.5192   -1.0610   -1.8016 H   0  0  0  0  0  0  0  0  0  0  0  0
    0.9725   -0.9715   -1.9585 H   0  0  0  0  0  0  0  0  0  0  0  0
  1  2  1  0  0  0  0
  1 11  1  0  0  0  0
  2  3  2  0  0  0  0
  3  4  1  0  0  0  0
  3 14  1  0  0  0  0
  4 15  1  0  0  0  0
  5  8  1  0  0  0  0
  5  4  2  0  0  0  0
  6  5  1  0  0  0  0
  7  6  2  0  0  0  0
  7  2  1  0  0  0  0
  8 10  2  0  0  0  0
  9  8  2  0  0  0  0
 12  1  1  0  0  0  0
 13  1  1  0  0  0  0
 16  6  1  0  0  0  0
 17  7  1  0  0  0  0
M  END
>  <Charge>
0.0

>  <InChI>
1/C7H7NO2/c1-6-2-4-7(5-3-6)8(9)10/h2-5H,1H3

>  <Molecular Formula>
C_{7}H_{7}NO_{2}

>  <Name>
4-NITROTOLUENE

>  <SMILES>
Cc1ccc(cc1)[N+](=O)[O-]

>  <logK (CARBON TETRACHLORIDE)>
5.56

>  <logK (CHLOROFORM)>
6.16

>  <logK (HEXADECANE)>
5.02

>  <mean polarizability>
15.57

>  <dipole moment>
5.32560107028

$$$$
404
 OpenBabel08101817183D

 20 19  0  0  0  0  0  0  0  0999 V2000
   -2.4800    0.6579    0.7330 C   0  0  0  0  0  0  0  0  0  0  0  0
   -1.8448   -0.7289    0.6096 C   0  0  0  0  0  0  0  0  0  0  0  0
   -0.3150   -0.7160    0.4920 C   0  0  0  0  0  0  0  0  0  0  0  0
    0.1981   -0.0823   -0.8065 C   0  0  0  0  0  0  0  0  0  0  0  0
    1.7041   -0.2158   -1.0733 C   0  0  0  0  0  0  0  0  0  0  0  0
    2.6293    0.7021   -0.2880 C   0  0  0  0  0  0  0  0  0  0  0  0
    2.8911    0.2040    1.4355 Cl  0  0  0  0  0  0  0  0  0  0  0  0
   -2.0653    1.2056    1.5920 H   0  0  0  0  0  0  0  0  0  0  0  0
   -3.5665    0.5861    0.8780 H   0  0  0  0  0  0  0  0  0  0  0  0
   -2.3106    1.2701   -0.1635 H   0  0  0  0  0  0  0  0  0  0  0  0
   -2.2718   -1.2535   -0.2619 H   0  0  0  0  0  0  0  0  0  0  0  0
   -2.1228   -1.3290    1.4898 H   0  0  0  0  0  0  0  0  0  0  0  0
    0.1127   -0.1960    1.3620 H   0  0  0  0  0  0  0  0  0  0  0  0
    0.0572   -1.7520    0.5476 H   0  0  0  0  0  0  0  0  0  0  0  0
   -0.3336   -0.5529   -1.6507 H   0  0  0  0  0  0  0  0  0  0  0  0
   -0.0724    0.9857   -0.8418 H   0  0  0  0  0  0  0  0  0  0  0  0
    1.8876    0.0274   -2.1344 H   0  0  0  0  0  0  0  0  0  0  0  0
    2.0282   -1.2598   -0.9410 H   0  0  0  0  0  0  0  0  0  0  0  0
    2.2433    1.7280   -0.2486 H   0  0  0  0  0  0  0  0  0  0  0  0
    3.6312    0.7191   -0.7298 H   0  0  0  0  0  0  0  0  0  0  0  0
  1  9  1  0  0  0  0
  1  8  1  0  0  0  0
  2  1  1  0  0  0  0
  2 12  1  0  0  0  0
  3 14  1  0  0  0  0
  3  2  1  0  0  0  0
  3 13  1  0  0  0  0
  4  3  1  0  0  0  0
  5 18  1  0  0  0  0
  5  4  1  0  0  0  0
  5  6  1  0  0  0  0
  6 19  1  0  0  0  0
  6  7  1  0  0  0  0
 10  1  1  0  0  0  0
 11  2  1  0  0  0  0
 15  4  1  0  0  0  0
 16  4  1  0  0  0  0
 17  5  1  0  0  0  0
 20  6  1  0  0  0  0
M  END
>  <Charge>
0.0

>  <InChI>
1/C6H13Cl/c1-2-3-4-5-6-7/h2-6H2,1H3

>  <Molecular Formula>
C_{6}H_{13}Cl

>  <Name>
CHLOROHEXANE

>  <SMILES>
CCCCCCCl

>  <logK (ETHYLBENZENE)>
4.229

>  <logK (HEXADECANE)>
3.71

>  <logK (TOLUENE)>
4.306

>  <mean polarizability>
13.7

>  <dipole moment>
1.97666031827

$$$$
405
 OpenBabel08101817183D

 23 22  0  0  0  0  0  0  0  0999 V2000
   -3.2718   -0.7116   -0.3133 C   0  0  0  0  0  0  0  0  0  0  0  0
   -2.6228    0.6464   -0.5890 C   0  0  0  0  0  0  0  0  0  0  0  0
   -1.3036    0.8833    0.1575 C   0  0  0  0  0  0  0  0  0  0  0  0
   -0.1484   -0.0220   -0.2792 C   0  0  0  0  0  0  0  0  0  0  0  0
    1.1631    0.2888    0.4459 C   0  0  0  0  0  0  0  0  0  0  0  0
    2.3182   -0.6137    0.0115 C   0  0  0  0  0  0  0  0  0  0  0  0
    3.6339   -0.3470    0.7222 C   0  0  0  0  0  0  0  0  0  0  0  0
    4.3237    1.2777    0.3140 Cl  0  0  0  0  0  0  0  0  0  0  0  0
   -2.6389   -1.5461   -0.6447 H   0  0  0  0  0  0  0  0  0  0  0  0
   -4.2341   -0.8045   -0.8352 H   0  0  0  0  0  0  0  0  0  0  0  0
   -3.4631   -0.8462    0.7616 H   0  0  0  0  0  0  0  0  0  0  0  0
   -3.3307    1.4433   -0.3128 H   0  0  0  0  0  0  0  0  0  0  0  0
   -2.4490    0.7589   -1.6721 H   0  0  0  0  0  0  0  0  0  0  0  0
   -1.4732    0.7580    1.2410 H   0  0  0  0  0  0  0  0  0  0  0  0
   -0.9984    1.9333    0.0183 H   0  0  0  0  0  0  0  0  0  0  0  0
   -0.4126   -1.0791   -0.1122 H   0  0  0  0  0  0  0  0  0  0  0  0
    0.0040    0.0866   -1.3670 H   0  0  0  0  0  0  0  0  0  0  0  0
    1.4399    1.3401    0.2712 H   0  0  0  0  0  0  0  0  0  0  0  0
    1.0130    0.1867    1.5344 H   0  0  0  0  0  0  0  0  0  0  0  0
    2.4732   -0.5339   -1.0759 H   0  0  0  0  0  0  0  0  0  0  0  0
    2.0571   -1.6680    0.2119 H   0  0  0  0  0  0  0  0  0  0  0  0
    4.4029   -1.0736    0.4384 H   0  0  0  0  0  0  0  0  0  0  0  0
    3.5179   -0.3575    1.8129 H   0  0  0  0  0  0  0  0  0  0  0  0
  1 11  1  0  0  0  0
  2  1  1  0  0  0  0
  2 12  1  0  0  0  0
  2  3  1  0  0  0  0
  3 14  1  0  0  0  0
  4 16  1  0  0  0  0
  4  3  1  0  0  0  0
  4  5  1  0  0  0  0
  5 19  1  0  0  0  0
  6 21  1  0  0  0  0
  6  5  1  0  0  0  0
  6  7  1  0  0  0  0
  7 23  1  0  0  0  0
  8  7  1  0  0  0  0
  9  1  1  0  0  0  0
 10  1  1  0  0  0  0
 13  2  1  0  0  0  0
 15  3  1  0  0  0  0
 17  4  1  0  0  0  0
 18  5  1  0  0  0  0
 20  6  1  0  0  0  0
 22  7  1  0  0  0  0
M  END
>  <Charge>
0.0

>  <InChI>
1/C7H15Cl/c1-2-3-4-5-6-7-8/h2-7H2,1H3

>  <Molecular Formula>
C_{7}H_{15}Cl

>  <Name>
1-CHLOROHEPTANE

>  <SMILES>
CCCCCCCCl

>  <logK (HEXADECANE)>
4.21

>  <mean polarizability>
15.79

>  <dipole moment>
2.02153234718

$$$$
406
 OpenBabel08101817183D

 11 10  0  0  0  0  0  0  0  0999 V2000
   -1.2021    0.4322   -0.2447 C   0  0  0  0  0  0  0  0  0  0  0  0
    0.0825    0.1818    0.5256 C   0  0  0  0  0  0  0  0  0  0  0  0
    1.1742   -0.4679   -0.3065 C   0  0  0  0  0  0  0  0  0  0  0  0
   -0.2805   -0.8756    1.9712 Cl  0  0  0  0  0  0  0  0  0  0  0  0
   -1.9664    0.8928    0.3918 H   0  0  0  0  0  0  0  0  0  0  0  0
   -0.9976    1.1096   -1.0872 H   0  0  0  0  0  0  0  0  0  0  0  0
   -1.6040   -0.5067   -0.6475 H   0  0  0  0  0  0  0  0  0  0  0  0
    0.4477    1.1150    0.9723 H   0  0  0  0  0  0  0  0  0  0  0  0
    1.4316    0.1894   -1.1504 H   0  0  0  0  0  0  0  0  0  0  0  0
    2.0798   -0.6402    0.2865 H   0  0  0  0  0  0  0  0  0  0  0  0
    0.8347   -1.4305   -0.7111 H   0  0  0  0  0  0  0  0  0  0  0  0
  1  5  1  0  0  0  0
  1  2  1  0  0  0  0
  2  8  1  0  0  0  0
  2  4  1  0  0  0  0
  3 10  1  0  0  0  0
  3  2  1  0  0  0  0
  6  1  1  0  0  0  0
  7  1  1  0  0  0  0
  9  3  1  0  0  0  0
 11  3  1  0  0  0  0
M  END
>  <Charge>
0.0

>  <InChI>
1/C3H7Cl/c1-3(2)4/h3H,1-2H3

>  <Molecular Formula>
C_{3}H_{7}Cl

>  <Name>
ISOPROPYL CHLORIDE

>  <SMILES>
CC(C)Cl

>  <logK (1-HEXADECENE)>
2.038874472

>  <logK (HEXADECANE)>
1.97

>  <mean polarizability>
8.26

>  <dipole moment>
2.19524143462

$$$$
407
 OpenBabel08101817183D

 14 13  0  0  0  0  0  0  0  0999 V2000
    1.4721   -0.2458   -0.0457 C   0  0  0  0  0  0  0  0  0  0  0  0
    0.0220    0.0030    0.3923 C   0  0  0  0  0  0  0  0  0  0  0  0
   -0.4669    1.3809   -0.0575 C   0  0  0  0  0  0  0  0  0  0  0  0
   -0.8503   -1.1263   -0.1487 C   0  0  0  0  0  0  0  0  0  0  0  0
   -2.5466   -1.0717    0.4757 Cl  0  0  0  0  0  0  0  0  0  0  0  0
    1.5632   -0.2261   -1.1421 H   0  0  0  0  0  0  0  0  0  0  0  0
    2.1335    0.5340    0.3550 H   0  0  0  0  0  0  0  0  0  0  0  0
    1.8441   -1.2176    0.3079 H   0  0  0  0  0  0  0  0  0  0  0  0
   -0.0219   -0.0453    1.4927 H   0  0  0  0  0  0  0  0  0  0  0  0
   -0.4218    1.4713   -1.1536 H   0  0  0  0  0  0  0  0  0  0  0  0
   -1.5032    1.5591    0.2553 H   0  0  0  0  0  0  0  0  0  0  0  0
    0.1606    2.1745    0.3698 H   0  0  0  0  0  0  0  0  0  0  0  0
   -0.4583   -2.1077    0.1420 H   0  0  0  0  0  0  0  0  0  0  0  0
   -0.9262   -1.0826   -1.2432 H   0  0  0  0  0  0  0  0  0  0  0  0
  1  8  1  0  0  0  0
  1  7  1  0  0  0  0
  1  2  1  0  0  0  0
  2  9  1  0  0  0  0
  3 11  1  0  0  0  0
  3 12  1  0  0  0  0
  3  2  1  0  0  0  0
  4 13  1  0  0  0  0
  4  2  1  0  0  0  0
  4  5  1  0  0  0  0
  6  1  1  0  0  0  0
 10  3  1  0  0  0  0
 14  4  1  0  0  0  0
M  END
>  <Charge>
0.0

>  <InChI>
1/C4H9Cl/c1-4(2)3-5/h4H,3H2,1-2H3

>  <Molecular Formula>
C_{4}H_{9}Cl

>  <Name>
1-CHLORO-2-METHYLPROPANE

>  <SMILES>
CC(C)CCl

>  <logK (1-HEXADECENE)>
2.56835094859

>  <logK (DIISOPROPYL ETHER)>
2.917

>  <logK (HEXADECANE)>
2.566

>  <mean polarizability>
10.09

>  <dipole moment>
2.09759848602

$$$$
408
 OpenBabel08101817183D

  8  7  0  0  0  0  0  0  0  0999 V2000
   -0.7750   -0.2050   -0.1477 C   0  0  0  0  0  0  0  0  0  0  0  0
    0.7091    0.0945    0.0773 C   0  0  0  0  0  0  0  0  0  0  0  0
    1.1775    1.6468   -0.6637 Cl  0  0  0  0  0  0  0  0  0  0  0  0
    1.6076   -1.2412   -0.7286 Cl  0  0  0  0  0  0  0  0  0  0  0  0
    1.1124    0.1082    1.8137 Cl  0  0  0  0  0  0  0  0  0  0  0  0
   -1.8641    1.0046    0.5751 Cl  0  0  0  0  0  0  0  0  0  0  0  0
   -1.0037   -1.1777    0.2998 H   0  0  0  0  0  0  0  0  0  0  0  0
   -0.9638   -0.2302   -1.2259 H   0  0  0  0  0  0  0  0  0  0  0  0
  1  2  1  0  0  0  0
  1  7  1  0  0  0  0
  1  6  1  0  0  0  0
  2  5  1  0  0  0  0
  3  2  1  0  0  0  0
  4  2  1  0  0  0  0
  8  1  1  0  0  0  0
M  END
>  <Charge>
0.0

>  <InChI>
1/C2H2Cl4/c3-1-2(4,5)6/h1H2

>  <Molecular Formula>
C_{2}H_{2}Cl_{4}

>  <Name>
TETRACHLOROETHANE

>  <SMILES>
C(C(Cl)(Cl)Cl)Cl

>  <logK (HEXADECANE)>
3.55

>  <mean polarizability>
12.46

>  <dipole moment>
1.32172806766

$$$$
409
 OpenBabel08101817183D

 11 10  0  0  0  0  0  0  0  0999 V2000
   -1.1146    0.3783   -0.5868 C   0  0  0  0  0  0  0  0  0  0  0  0
   -0.2806   -0.3400    0.4710 C   0  0  0  0  0  0  0  0  0  0  0  0
    1.2140   -0.3238    0.2150 C   0  0  0  0  0  0  0  0  0  0  0  0
    1.9869    1.4966    0.3308 Br  0  0  0  0  0  0  0  0  0  0  0  0
   -0.8494    1.4420   -0.6412 H   0  0  0  0  0  0  0  0  0  0  0  0
   -2.1853    0.3072   -0.3564 H   0  0  0  0  0  0  0  0  0  0  0  0
   -0.9553   -0.0598   -1.5825 H   0  0  0  0  0  0  0  0  0  0  0  0
   -0.5746   -1.4036    0.5166 H   0  0  0  0  0  0  0  0  0  0  0  0
   -0.4826    0.0776    1.4684 H   0  0  0  0  0  0  0  0  0  0  0  0
    1.4708   -0.6710   -0.7918 H   0  0  0  0  0  0  0  0  0  0  0  0
    1.7706   -0.9037    0.9569 H   0  0  0  0  0  0  0  0  0  0  0  0
  1  6  1  0  0  0  0
  1  2  1  0  0  0  0
  2  8  1  0  0  0  0
  2  9  1  0  0  0  0
  3  4  1  0  0  0  0
  3  2  1  0  0  0  0
  3 11  1  0  0  0  0
  5  1  1  0  0  0  0
  7  1  1  0  0  0  0
 10  3  1  0  0  0  0
M  END
>  <Charge>
0.0

>  <InChI>
1/C3H7Br/c1-2-3-4/h2-3H2,1H3

>  <Molecular Formula>
C_{3}H_{7}Br

>  <Name>
1-BROMOPROPANE

>  <SMILES>
CCCBr

>  <logK (1-HEXADECENE)>
2.60654855855

>  <logK (CARBON TETRACHLORIDE)>
3.06

>  <logK (HEXADECANE)>
2.62

>  <mean polarizability>
8.88

>  <dipole moment>
2.12493435388

$$$$
410
 OpenBabel08101817183D

 17 16  0  0  0  0  0  0  0  0999 V2000
   -2.1586    0.0963   -0.6594 C   0  0  0  0  0  0  0  0  0  0  0  0
   -1.4225   -0.0628    0.6728 C   0  0  0  0  0  0  0  0  0  0  0  0
    0.0482    0.3727    0.6416 C   0  0  0  0  0  0  0  0  0  0  0  0
    0.9451   -0.5114   -0.2270 C   0  0  0  0  0  0  0  0  0  0  0  0
    2.4167   -0.1475   -0.1897 C   0  0  0  0  0  0  0  0  0  0  0  0
    2.7913    1.6110   -1.0227 Br  0  0  0  0  0  0  0  0  0  0  0  0
   -3.2161   -0.1844   -0.5617 H   0  0  0  0  0  0  0  0  0  0  0  0
   -2.1215    1.1382   -1.0086 H   0  0  0  0  0  0  0  0  0  0  0  0
   -1.7265   -0.5329   -1.4495 H   0  0  0  0  0  0  0  0  0  0  0  0
   -1.4848   -1.1122    1.0065 H   0  0  0  0  0  0  0  0  0  0  0  0
   -1.9434    0.5290    1.4411 H   0  0  0  0  0  0  0  0  0  0  0  0
    0.1159    1.4133    0.2873 H   0  0  0  0  0  0  0  0  0  0  0  0
    0.4453    0.3712    1.6702 H   0  0  0  0  0  0  0  0  0  0  0  0
    0.8737   -1.5568    0.1264 H   0  0  0  0  0  0  0  0  0  0  0  0
    0.6008   -0.5146   -1.2716 H   0  0  0  0  0  0  0  0  0  0  0  0
    2.8010   -0.0577    0.8324 H   0  0  0  0  0  0  0  0  0  0  0  0
    3.0353   -0.8515   -0.7539 H   0  0  0  0  0  0  0  0  0  0  0  0
  1  7  1  0  0  0  0
  1  2  1  0  0  0  0
  2 10  1  0  0  0  0
  2 11  1  0  0  0  0
  3  2  1  0  0  0  0
  3 13  1  0  0  0  0
  4  5  1  0  0  0  0
  4 14  1  0  0  0  0
  4  3  1  0  0  0  0
  5 16  1  0  0  0  0
  6  5  1  0  0  0  0
  8  1  1  0  0  0  0
  9  1  1  0  0  0  0
 12  3  1  0  0  0  0
 15  4  1  0  0  0  0
 17  5  1  0  0  0  0
M  END
>  <Charge>
0.0

>  <InChI>
1/C5H11Br/c1-2-3-4-5-6/h2-5H2,1H3

>  <Molecular Formula>
C_{5}H_{11}Br

>  <Name>
BROMOPENTANE

>  <SMILES>
CCCCCBr

>  <logK (HEXADECANE)>
3.611

>  <mean polarizability>
12.64

>  <dipole moment>
2.13410806818

$$$$
411
 OpenBabel08101817183D

 20 19  0  0  0  0  0  0  0  0999 V2000
    2.6247   -0.5711   -0.4275 C   0  0  0  0  0  0  0  0  0  0  0  0
    2.0835    0.3788    0.6428 C   0  0  0  0  0  0  0  0  0  0  0  0
    0.6780    0.0296    1.1490 C   0  0  0  0  0  0  0  0  0  0  0  0
   -0.4309    0.1873    0.1051 C   0  0  0  0  0  0  0  0  0  0  0  0
   -1.8193   -0.1189    0.6676 C   0  0  0  0  0  0  0  0  0  0  0  0
   -2.9552   -0.0014   -0.3293 C   0  0  0  0  0  0  0  0  0  0  0  0
   -3.2532    1.8626   -0.9327 Br  0  0  0  0  0  0  0  0  0  0  0  0
    2.6447   -1.6083   -0.0614 H   0  0  0  0  0  0  0  0  0  0  0  0
    3.6501   -0.3015   -0.7146 H   0  0  0  0  0  0  0  0  0  0  0  0
    2.0151   -0.5531   -1.3411 H   0  0  0  0  0  0  0  0  0  0  0  0
    2.0792    1.4099    0.2529 H   0  0  0  0  0  0  0  0  0  0  0  0
    2.7742    0.3826    1.5002 H   0  0  0  0  0  0  0  0  0  0  0  0
    0.4411    0.6722    2.0128 H   0  0  0  0  0  0  0  0  0  0  0  0
    0.6781   -1.0060    1.5317 H   0  0  0  0  0  0  0  0  0  0  0  0
   -0.2412   -0.4748   -0.7552 H   0  0  0  0  0  0  0  0  0  0  0  0
   -0.4198    1.2164   -0.2875 H   0  0  0  0  0  0  0  0  0  0  0  0
   -2.0271    0.5240    1.5371 H   0  0  0  0  0  0  0  0  0  0  0  0
   -1.8395   -1.1588    1.0424 H   0  0  0  0  0  0  0  0  0  0  0  0
   -3.9162   -0.3049    0.0958 H   0  0  0  0  0  0  0  0  0  0  0  0
   -2.7664   -0.5643   -1.2499 H   0  0  0  0  0  0  0  0  0  0  0  0
  1  8  1  0  0  0  0
  1  2  1  0  0  0  0
  2  3  1  0  0  0  0
  2 12  1  0  0  0  0
  3 14  1  0  0  0  0
  3 13  1  0  0  0  0
  4  5  1  0  0  0  0
  4  3  1  0  0  0  0
  5 18  1  0  0  0  0
  5 17  1  0  0  0  0
  6 19  1  0  0  0  0
  6  5  1  0  0  0  0
  7  6  1  0  0  0  0
  9  1  1  0  0  0  0
 10  1  1  0  0  0  0
 11  2  1  0  0  0  0
 15  4  1  0  0  0  0
 16  4  1  0  0  0  0
 20  6  1  0  0  0  0
M  END
>  <Charge>
0.0

>  <InChI>
1/C6H13Br/c1-2-3-4-5-6-7/h2-6H2,1H3

>  <Molecular Formula>
C_{6}H_{13}Br

>  <Name>
1-BROMOHEXANE

>  <SMILES>
CCCCCCBr

>  <logK (HEXADECANE)>
4.13

>  <mean polarizability>
14.59

>  <dipole moment>
2.09379348489

$$$$
412
 OpenBabel08101817183D

 23 22  0  0  0  0  0  0  0  0999 V2000
   -3.8519    0.0059    0.3018 C   0  0  0  0  0  0  0  0  0  0  0  0
   -2.5474   -0.5141   -0.3023 C   0  0  0  0  0  0  0  0  0  0  0  0
   -1.3022    0.1550    0.2840 C   0  0  0  0  0  0  0  0  0  0  0  0
    0.0107   -0.3534   -0.3153 C   0  0  0  0  0  0  0  0  0  0  0  0
    1.2504    0.3173    0.2808 C   0  0  0  0  0  0  0  0  0  0  0  0
    2.5584   -0.1872   -0.3287 C   0  0  0  0  0  0  0  0  0  0  0  0
    3.8123    0.4748    0.2083 C   0  0  0  0  0  0  0  0  0  0  0  0
    4.1515    0.0402    2.1116 Br  0  0  0  0  0  0  0  0  0  0  0  0
   -3.9636    1.0871    0.1351 H   0  0  0  0  0  0  0  0  0  0  0  0
   -3.8827   -0.1648    1.3876 H   0  0  0  0  0  0  0  0  0  0  0  0
   -4.7275   -0.4906   -0.1380 H   0  0  0  0  0  0  0  0  0  0  0  0
   -2.4784   -1.6036   -0.1497 H   0  0  0  0  0  0  0  0  0  0  0  0
   -2.5600   -0.3618   -1.3942 H   0  0  0  0  0  0  0  0  0  0  0  0
   -1.2871    0.0007    1.3764 H   0  0  0  0  0  0  0  0  0  0  0  0
   -1.3725    1.2461    0.1343 H   0  0  0  0  0  0  0  0  0  0  0  0
   -0.0033   -0.1976   -1.4078 H   0  0  0  0  0  0  0  0  0  0  0  0
    0.0809   -1.4443   -0.1655 H   0  0  0  0  0  0  0  0  0  0  0  0
    1.1815    1.4092    0.1376 H   0  0  0  0  0  0  0  0  0  0  0  0
    1.2715    0.1508    1.3691 H   0  0  0  0  0  0  0  0  0  0  0  0
    2.5493   -0.0000   -1.4182 H   0  0  0  0  0  0  0  0  0  0  0  0
    2.6393   -1.2783   -0.2055 H   0  0  0  0  0  0  0  0  0  0  0  0
    4.7153    0.1404   -0.3108 H   0  0  0  0  0  0  0  0  0  0  0  0
    3.7555    1.5684    0.1790 H   0  0  0  0  0  0  0  0  0  0  0  0
  1 10  1  0  0  0  0
  2 12  1  0  0  0  0
  2  3  1  0  0  0  0
  2  1  1  0  0  0  0
  3 14  1  0  0  0  0
  4 17  1  0  0  0  0
  4  5  1  0  0  0  0
  4  3  1  0  0  0  0
  5 19  1  0  0  0  0
  6 21  1  0  0  0  0
  6  7  1  0  0  0  0
  6  5  1  0  0  0  0
  7  8  1  0  0  0  0
  9  1  1  0  0  0  0
 11  1  1  0  0  0  0
 13  2  1  0  0  0  0
 15  3  1  0  0  0  0
 16  4  1  0  0  0  0
 18  5  1  0  0  0  0
 20  6  1  0  0  0  0
 22  7  1  0  0  0  0
 23  7  1  0  0  0  0
M  END
>  <Charge>
0.0

>  <InChI>
1/C7H15Br/c1-2-3-4-5-6-7-8/h2-7H2,1H3

>  <Molecular Formula>
C_{7}H_{15}Br

>  <Name>
BROMOHEPTANE

>  <SMILES>
CCCCCCCBr

>  <logK (HEXADECANE)>
4.6

>  <mean polarizability>
16.67

>  <dipole moment>
2.12725293827

$$$$
413
 OpenBabel08101817183D

 26 25  0  0  0  0  0  0  0  0999 V2000
   -3.8203   -0.4367    0.4060 C   0  0  0  0  0  0  0  0  0  0  0  0
   -2.7739    0.3821    1.1650 C   0  0  0  0  0  0  0  0  0  0  0  0
   -1.3196    0.0031    0.8529 C   0  0  0  0  0  0  0  0  0  0  0  0
   -0.8802    0.3140   -0.5818 C   0  0  0  0  0  0  0  0  0  0  0  0
    0.5722   -0.0693   -0.8992 C   0  0  0  0  0  0  0  0  0  0  0  0
    1.6205    0.7605   -0.1509 C   0  0  0  0  0  0  0  0  0  0  0  0
    3.0660    0.4912   -0.5831 C   0  0  0  0  0  0  0  0  0  0  0  0
    3.5792   -0.9175   -0.3494 C   0  0  0  0  0  0  0  0  0  0  0  0
    3.6484   -1.3945    1.5730 Br  0  0  0  0  0  0  0  0  0  0  0  0
   -3.7512   -0.2899   -0.6804 H   0  0  0  0  0  0  0  0  0  0  0  0
   -3.6984   -1.5120    0.6038 H   0  0  0  0  0  0  0  0  0  0  0  0
   -4.8387   -0.1574    0.7085 H   0  0  0  0  0  0  0  0  0  0  0  0
   -2.9433    0.2630    2.2465 H   0  0  0  0  0  0  0  0  0  0  0  0
   -2.9204    1.4544    0.9531 H   0  0  0  0  0  0  0  0  0  0  0  0
   -1.1755   -1.0738    1.0487 H   0  0  0  0  0  0  0  0  0  0  0  0
   -0.6613    0.5300    1.5605 H   0  0  0  0  0  0  0  0  0  0  0  0
   -1.5402   -0.2124   -1.2883 H   0  0  0  0  0  0  0  0  0  0  0  0
   -1.0215    1.3914   -0.7780 H   0  0  0  0  0  0  0  0  0  0  0  0
    0.7102   -1.1405   -0.6764 H   0  0  0  0  0  0  0  0  0  0  0  0
    0.7399    0.0425   -1.9837 H   0  0  0  0  0  0  0  0  0  0  0  0
    1.4092    1.8299   -0.3123 H   0  0  0  0  0  0  0  0  0  0  0  0
    1.5399    0.5904    0.9330 H   0  0  0  0  0  0  0  0  0  0  0  0
    3.7413    1.2038   -0.0871 H   0  0  0  0  0  0  0  0  0  0  0  0
    3.1618    0.6768   -1.6689 H   0  0  0  0  0  0  0  0  0  0  0  0
    2.9472   -1.6871   -0.8026 H   0  0  0  0  0  0  0  0  0  0  0  0
    4.6086   -1.0418   -0.6977 H   0  0  0  0  0  0  0  0  0  0  0  0
  1 11  1  0  0  0  0
  1 12  1  0  0  0  0
  1  2  1  0  0  0  0
  2 13  1  0  0  0  0
  3 15  1  0  0  0  0
  3  2  1  0  0  0  0
  3 16  1  0  0  0  0
  4  3  1  0  0  0  0
  5 19  1  0  0  0  0
  5  4  1  0  0  0  0
  5  6  1  0  0  0  0
  6 22  1  0  0  0  0
  7  8  1  0  0  0  0
  7  6  1  0  0  0  0
  7 23  1  0  0  0  0
  8  9  1  0  0  0  0
 10  1  1  0  0  0  0
 14  2  1  0  0  0  0
 17  4  1  0  0  0  0
 18  4  1  0  0  0  0
 20  5  1  0  0  0  0
 21  6  1  0  0  0  0
 24  7  1  0  0  0  0
 25  8  1  0  0  0  0
 26  8  1  0  0  0  0
M  END
>  <Charge>
0.0

>  <InChI>
1/C8H17Br/c1-2-3-4-5-6-7-8-9/h2-8H2,1H3

>  <Molecular Formula>
C_{8}H_{17}Br

>  <Name>
1-BROMOOCTANE

>  <SMILES>
CCCCCCCCBr

>  <logK (HEXADECANE)>
5.09

>  <mean polarizability>
18.27

>  <dipole moment>
2.01599487035

$$$$
414
 OpenBabel08101817183D

 11 10  0  0  0  0  0  0  0  0999 V2000
   -1.2935   -0.1077    0.1249 C   0  0  0  0  0  0  0  0  0  0  0  0
    0.0535    0.5110   -0.1943 C   0  0  0  0  0  0  0  0  0  0  0  0
    1.2137   -0.4620   -0.1170 C   0  0  0  0  0  0  0  0  0  0  0  0
    0.3895    2.0269    1.0677 Br  0  0  0  0  0  0  0  0  0  0  0  0
   -1.5041   -0.9085   -0.6014 H   0  0  0  0  0  0  0  0  0  0  0  0
   -1.2959   -0.5495    1.1299 H   0  0  0  0  0  0  0  0  0  0  0  0
   -2.1022    0.6297    0.0674 H   0  0  0  0  0  0  0  0  0  0  0  0
    0.0315    1.0183   -1.1655 H   0  0  0  0  0  0  0  0  0  0  0  0
    1.0562   -1.2704   -0.8483 H   0  0  0  0  0  0  0  0  0  0  0  0
    2.1682    0.0261   -0.3445 H   0  0  0  0  0  0  0  0  0  0  0  0
    1.2830   -0.9139    0.8811 H   0  0  0  0  0  0  0  0  0  0  0  0
  1  6  1  0  0  0  0
  2  3  1  0  0  0  0
  2  1  1  0  0  0  0
  2  4  1  0  0  0  0
  3 11  1  0  0  0  0
  5  1  1  0  0  0  0
  7  1  1  0  0  0  0
  8  2  1  0  0  0  0
  9  3  1  0  0  0  0
 10  3  1  0  0  0  0
M  END
>  <Charge>
0.0

>  <InChI>
1/C3H7Br/c1-3(2)4/h3H,1-2H3

>  <Molecular Formula>
C_{3}H_{7}Br

>  <Name>
2-BROMOPROPANE

>  <SMILES>
CC(C)Br

>  <logK (1-HEXADECENE)>
2.40983469672

>  <logK (HEXADECANE)>
2.391

>  <logK (PYRIDINE)>
2.897

>  <mean polarizability>
9.06

>  <dipole moment>
2.27391215757

$$$$
415
 OpenBabel08101817183D

 14 13  0  0  1  0  0  0  0  0999 V2000
    1.5163   -0.0332    0.7410 C   0  0  0  0  0  0  0  0  0  0  0  0
    0.6880    0.6483   -0.3467 C   0  0  0  0  0  0  0  0  0  0  0  0
   -0.6281   -0.0305   -0.7145 C   0  0  2  0  0  0  0  0  0  0  0  0
   -1.5938   -0.2507    0.4345 C   0  0  0  0  0  0  0  0  0  0  0  0
   -0.2641   -1.7924   -1.6009 Br  0  0  0  0  0  0  0  0  0  0  0  0
    1.7732   -1.0609    0.4529 H   0  0  0  0  0  0  0  0  0  0  0  0
    0.9841   -0.0718    1.7005 H   0  0  0  0  0  0  0  0  0  0  0  0
    2.4527    0.5147    0.9064 H   0  0  0  0  0  0  0  0  0  0  0  0
    0.4237    1.6712   -0.0235 H   0  0  0  0  0  0  0  0  0  0  0  0
    1.2894    0.7616   -1.2596 H   0  0  0  0  0  0  0  0  0  0  0  0
   -1.1139    0.5284   -1.5224 H   0  0  0  0  0  0  0  0  0  0  0  0
   -1.8205    0.7182    0.9076 H   0  0  0  0  0  0  0  0  0  0  0  0
   -1.1723   -0.9141    1.1989 H   0  0  0  0  0  0  0  0  0  0  0  0
   -2.5347   -0.6889    0.0831 H   0  0  0  0  0  0  0  0  0  0  0  0
  1  8  1  0  0  0  0
  1  7  1  0  0  0  0
  2  9  1  0  0  0  0
  2  1  1  0  0  0  0
  3 11  1  6  0  0  0
  3  2  1  0  0  0  0
  3  4  1  0  0  0  0
  4 12  1  0  0  0  0
  4 13  1  0  0  0  0
  5  3  1  0  0  0  0
  6  1  1  0  0  0  0
 10  2  1  0  0  0  0
 14  4  1  0  0  0  0
M  END
>  <Charge>
0.0

>  <InChI>
1/C4H9Br/c1-3-4(2)5/h4H,3H2,1-2H3

>  <Molecular Formula>
C_{4}H_{9}Br

>  <Name>
2-BROMOBUTANE

>  <SMILES>
CCC(C)Br

>  <logK (1-HEXADECENE)>
2.89648789635

>  <logK (HEXADECANE)>
2.933

>  <mean polarizability>
10.84

>  <dipole moment>
2.28878360701

$$$$
416
 OpenBabel08101817183D

 14 13  0  0  0  0  0  0  0  0999 V2000
   -0.3591    1.2377    0.6803 C   0  0  0  0  0  0  0  0  0  0  0  0
    0.1256    0.1860   -0.3188 C   0  0  0  0  0  0  0  0  0  0  0  0
    1.4056   -0.5046    0.1788 C   0  0  0  0  0  0  0  0  0  0  0  0
   -0.9202   -0.8868   -0.5929 C   0  0  0  0  0  0  0  0  0  0  0  0
   -2.5414   -0.1903   -1.4873 Br  0  0  0  0  0  0  0  0  0  0  0  0
   -1.2706    1.7353    0.3264 H   0  0  0  0  0  0  0  0  0  0  0  0
    0.4098    2.0053    0.8401 H   0  0  0  0  0  0  0  0  0  0  0  0
   -0.5800    0.7761    1.6548 H   0  0  0  0  0  0  0  0  0  0  0  0
    0.3526    0.6846   -1.2751 H   0  0  0  0  0  0  0  0  0  0  0  0
    1.7857   -1.2329   -0.5508 H   0  0  0  0  0  0  0  0  0  0  0  0
    1.2263   -1.0343    1.1262 H   0  0  0  0  0  0  0  0  0  0  0  0
    2.1953    0.2374    0.3580 H   0  0  0  0  0  0  0  0  0  0  0  0
   -0.5463   -1.6609   -1.2704 H   0  0  0  0  0  0  0  0  0  0  0  0
   -1.2834   -1.3528    0.3309 H   0  0  0  0  0  0  0  0  0  0  0  0
  1  7  1  0  0  0  0
  1  8  1  0  0  0  0
  2  3  1  0  0  0  0
  2  1  1  0  0  0  0
  3 12  1  0  0  0  0
  3 11  1  0  0  0  0
  4  2  1  0  0  0  0
  4 14  1  0  0  0  0
  5  4  1  0  0  0  0
  6  1  1  0  0  0  0
  9  2  1  0  0  0  0
 10  3  1  0  0  0  0
 13  4  1  0  0  0  0
M  END
>  <Charge>
0.0

>  <InChI>
1/C4H9Br/c1-4(2)3-5/h4H,3H2,1-2H3

>  <Molecular Formula>
C_{4}H_{9}Br

>  <Name>
1-BROMO-2-METHYLPROPANE

>  <SMILES>
CC(C)CBr

>  <logK (1-HEXADECENE)>
2.91801139666

>  <logK (HEXADECANE)>
2.961

>  <mean polarizability>
10.88

>  <dipole moment>
2.15096547451

$$$$
417
 OpenBabel08101817183D

  8  7  0  0  0  0  0  0  0  0999 V2000
   -0.6756   -0.3305    0.0178 C   0  0  0  0  0  0  0  0  0  0  0  0
    0.6756    0.3305   -0.0178 C   0  0  0  0  0  0  0  0  0  0  0  0
    2.0649   -1.0764   -0.0223 Br  0  0  0  0  0  0  0  0  0  0  0  0
   -2.0649    1.0764    0.0223 Br  0  0  0  0  0  0  0  0  0  0  0  0
   -0.8688   -0.9420   -0.8668 H   0  0  0  0  0  0  0  0  0  0  0  0
   -0.8349   -0.9144    0.9276 H   0  0  0  0  0  0  0  0  0  0  0  0
    0.8688    0.9420    0.8668 H   0  0  0  0  0  0  0  0  0  0  0  0
    0.8349    0.9144   -0.9276 H   0  0  0  0  0  0  0  0  0  0  0  0
  1  4  1  0  0  0  0
  1  6  1  0  0  0  0
  2  1  1  0  0  0  0
  2  7  1  0  0  0  0
  3  2  1  0  0  0  0
  5  1  1  0  0  0  0
  8  2  1  0  0  0  0
M  END
>  <Charge>
0.0

>  <InChI>
1/C2H4Br2/c3-1-2-4/h1-2H2

>  <Molecular Formula>
C_{2}H_{4}Br_{2}

>  <Name>
1,2-DIBROMOETHANE

>  <SMILES>
C(CBr)Br

>  <logK (1,4-DIOXANE)>
4.28

>  <logK (CARBON TETRACHLORIDE)>
3.912

>  <logK (HEXADECANE)>
3.999

>  <mean polarizability>
10.24

>  <dipole moment>
7.47344085038e-13

$$$$
418
 OpenBabel08101817183D

 11 10  0  0  0  0  0  0  0  0999 V2000
   -1.2983    0.2308   -0.0771 C   0  0  0  0  0  0  0  0  0  0  0  0
   -0.0357   -0.6120   -0.2337 C   0  0  0  0  0  0  0  0  0  0  0  0
    1.2634    0.1394   -0.0095 C   0  0  0  0  0  0  0  0  0  0  0  0
    1.5299    0.8144    2.0564 I   0  0  0  0  0  0  0  0  0  0  0  0
   -1.2951    1.0838   -0.7707 H   0  0  0  0  0  0  0  0  0  0  0  0
   -2.1962   -0.3660   -0.2825 H   0  0  0  0  0  0  0  0  0  0  0  0
   -1.3822    0.6284    0.9433 H   0  0  0  0  0  0  0  0  0  0  0  0
    0.0144   -1.0107   -1.2630 H   0  0  0  0  0  0  0  0  0  0  0  0
   -0.0744   -1.4873    0.4312 H   0  0  0  0  0  0  0  0  0  0  0  0
    2.1457   -0.4797   -0.1936 H   0  0  0  0  0  0  0  0  0  0  0  0
    1.3285    1.0590   -0.6006 H   0  0  0  0  0  0  0  0  0  0  0  0
  1  7  1  0  0  0  0
  2  1  1  0  0  0  0
  2  3  1  0  0  0  0
  2  9  1  0  0  0  0
  3  4  1  0  0  0  0
  5  1  1  0  0  0  0
  6  1  1  0  0  0  0
  8  2  1  0  0  0  0
 10  3  1  0  0  0  0
 11  3  1  0  0  0  0
M  END
>  <Charge>
0.0

>  <InChI>
1/C3H7I/c1-2-3-4/h2-3H2,1H3

>  <Molecular Formula>
C_{3}H_{7}I

>  <Name>
1-IODOPROPANE

>  <SMILES>
CCCI

>  <logK (1-HEXADECENE)>
3.04816837114

>  <logK (CARBON TETRACHLORIDE)>
3.64

>  <logK (HEXADECANE)>
3.13

>  <mean polarizability>
10.6

>  <dipole moment>
2.10690045772

$$$$
419
 OpenBabel08101817183D

 14 13  0  0  0  0  0  0  0  0999 V2000
    1.4235    0.8362   -0.3207 C   0  0  0  0  0  0  0  0  0  0  0  0
    0.7104    0.0065    0.7474 C   0  0  0  0  0  0  0  0  0  0  0  0
   -0.3610   -0.9418    0.1995 C   0  0  0  0  0  0  0  0  0  0  0  0
   -1.5132   -0.2929   -0.5450 C   0  0  0  0  0  0  0  0  0  0  0  0
   -2.7263    1.0285    0.7117 I   0  0  0  0  0  0  0  0  0  0  0  0
    2.2244    1.4420    0.1231 H   0  0  0  0  0  0  0  0  0  0  0  0
    1.8798    0.1940   -1.0887 H   0  0  0  0  0  0  0  0  0  0  0  0
    0.7385    1.5303   -0.8270 H   0  0  0  0  0  0  0  0  0  0  0  0
    1.4490   -0.5968    1.2962 H   0  0  0  0  0  0  0  0  0  0  0  0
    0.2479    0.6754    1.4898 H   0  0  0  0  0  0  0  0  0  0  0  0
    0.1110   -1.6394   -0.5181 H   0  0  0  0  0  0  0  0  0  0  0  0
   -0.7591   -1.5627    1.0154 H   0  0  0  0  0  0  0  0  0  0  0  0
   -1.1914    0.3484   -1.3705 H   0  0  0  0  0  0  0  0  0  0  0  0
   -2.2334   -1.0274   -0.9153 H   0  0  0  0  0  0  0  0  0  0  0  0
  1  6  1  0  0  0  0
  1  2  1  0  0  0  0
  2  9  1  0  0  0  0
  2 10  1  0  0  0  0
  3  2  1  0  0  0  0
  3 12  1  0  0  0  0
  4  3  1  0  0  0  0
  4  5  1  0  0  0  0
  7  1  1  0  0  0  0
  8  1  1  0  0  0  0
 11  3  1  0  0  0  0
 13  4  1  0  0  0  0
 14  4  1  0  0  0  0
M  END
>  <Charge>
0.0

>  <InChI>
1/C4H9I/c1-2-3-4-5/h2-4H2,1H3

>  <Molecular Formula>
C_{4}H_{9}I

>  <Name>
BUTYL IODIDE

>  <SMILES>
CCCCI

>  <logK (CARBON TETRACHLORIDE)>
4.08

>  <logK (HEXADECANE)>
3.628

>  <mean polarizability>
12.45

>  <dipole moment>
2.08117272912

$$$$
420
 OpenBabel08101817183D

 17 16  0  0  0  0  0  0  0  0999 V2000
   -2.0068   -0.1505   -0.4884 C   0  0  0  0  0  0  0  0  0  0  0  0
   -0.9971    0.8789    0.0228 C   0  0  0  0  0  0  0  0  0  0  0  0
    0.0480    0.3147    0.9942 C   0  0  0  0  0  0  0  0  0  0  0  0
    0.9688   -0.7693    0.4219 C   0  0  0  0  0  0  0  0  0  0  0  0
    1.7932   -0.3746   -0.7893 C   0  0  0  0  0  0  0  0  0  0  0  0
    3.2263    1.2320   -0.3840 I   0  0  0  0  0  0  0  0  0  0  0  0
   -2.5362   -0.6339    0.3458 H   0  0  0  0  0  0  0  0  0  0  0  0
   -1.5271   -0.9448   -1.0774 H   0  0  0  0  0  0  0  0  0  0  0  0
   -2.7616    0.3195   -1.1327 H   0  0  0  0  0  0  0  0  0  0  0  0
   -1.5373    1.6887    0.5366 H   0  0  0  0  0  0  0  0  0  0  0  0
   -0.4926    1.3619   -0.8294 H   0  0  0  0  0  0  0  0  0  0  0  0
   -0.4679   -0.1055    1.8725 H   0  0  0  0  0  0  0  0  0  0  0  0
    0.6722    1.1404    1.3695 H   0  0  0  0  0  0  0  0  0  0  0  0
    0.3671   -1.6420    0.1097 H   0  0  0  0  0  0  0  0  0  0  0  0
    1.6380   -1.1336    1.2149 H   0  0  0  0  0  0  0  0  0  0  0  0
    1.1919    0.0123   -1.6171 H   0  0  0  0  0  0  0  0  0  0  0  0
    2.4213   -1.1942   -1.1481 H   0  0  0  0  0  0  0  0  0  0  0  0
  1  2  1  0  0  0  0
  1  7  1  0  0  0  0
  2 10  1  0  0  0  0
  2  3  1  0  0  0  0
  3 13  1  0  0  0  0
  3 12  1  0  0  0  0
  4  3  1  0  0  0  0
  4 15  1  0  0  0  0
  5  6  1  0  0  0  0
  5  4  1  0  0  0  0
  8  1  1  0  0  0  0
  9  1  1  0  0  0  0
 11  2  1  0  0  0  0
 14  4  1  0  0  0  0
 16  5  1  0  0  0  0
 17  5  1  0  0  0  0
M  END
>  <Charge>
0.0

>  <InChI>
1/C5H11I/c1-2-3-4-5-6/h2-5H2,1H3

>  <Molecular Formula>
C_{5}H_{11}I

>  <Name>
1-IODOPENTANE

>  <SMILES>
CCCCCI

>  <logK (HEXADECANE)>
4.13

>  <mean polarizability>
14.31

>  <dipole moment>
2.07299626262

$$$$
421
 OpenBabel08101817183D

 20 19  0  0  0  0  0  0  0  0999 V2000
    2.7937    0.0386    0.3407 C   0  0  0  0  0  0  0  0  0  0  0  0
    1.7300   -0.9596   -0.1202 C   0  0  0  0  0  0  0  0  0  0  0  0
    0.4096   -0.3190   -0.5710 C   0  0  0  0  0  0  0  0  0  0  0  0
   -0.3766    0.3536    0.5581 C   0  0  0  0  0  0  0  0  0  0  0  0
   -1.6880    1.0122    0.1168 C   0  0  0  0  0  0  0  0  0  0  0  0
   -2.7326    0.0951   -0.4929 C   0  0  0  0  0  0  0  0  0  0  0  0
   -3.4775   -1.4222    0.9004 I   0  0  0  0  0  0  0  0  0  0  0  0
    3.7265   -0.4741    0.6116 H   0  0  0  0  0  0  0  0  0  0  0  0
    2.4701    0.6112    1.2201 H   0  0  0  0  0  0  0  0  0  0  0  0
    3.0305    0.7588   -0.4560 H   0  0  0  0  0  0  0  0  0  0  0  0
    1.5211   -1.6780    0.6891 H   0  0  0  0  0  0  0  0  0  0  0  0
    2.1349   -1.5536   -0.9538 H   0  0  0  0  0  0  0  0  0  0  0  0
    0.6176    0.4207   -1.3643 H   0  0  0  0  0  0  0  0  0  0  0  0
   -0.2119   -1.1011   -1.0348 H   0  0  0  0  0  0  0  0  0  0  0  0
    0.2436    1.1283    1.0329 H   0  0  0  0  0  0  0  0  0  0  0  0
   -0.5953   -0.3896    1.3423 H   0  0  0  0  0  0  0  0  0  0  0  0
   -1.4664    1.7758   -0.6521 H   0  0  0  0  0  0  0  0  0  0  0  0
   -2.1331    1.5526    0.9651 H   0  0  0  0  0  0  0  0  0  0  0  0
   -3.6352    0.6360   -0.7901 H   0  0  0  0  0  0  0  0  0  0  0  0
   -2.3612   -0.4857   -1.3419 H   0  0  0  0  0  0  0  0  0  0  0  0
  1  8  1  0  0  0  0
  1  9  1  0  0  0  0
  2  1  1  0  0  0  0
  2 11  1  0  0  0  0
  3  2  1  0  0  0  0
  3  4  1  0  0  0  0
  4 15  1  0  0  0  0
  4 16  1  0  0  0  0
  5  4  1  0  0  0  0
  5 18  1  0  0  0  0
  6  5  1  0  0  0  0
  6  7  1  0  0  0  0
 10  1  1  0  0  0  0
 12  2  1  0  0  0  0
 13  3  1  0  0  0  0
 14  3  1  0  0  0  0
 17  5  1  0  0  0  0
 19  6  1  0  0  0  0
 20  6  1  0  0  0  0
M  END
>  <Charge>
0.0

>  <InChI>
1/C6H13I/c1-2-3-4-5-6-7/h2-6H2,1H3

>  <Molecular Formula>
C_{6}H_{13}I

>  <Name>
1-IODOHEXANE

>  <SMILES>
CCCCCCI

>  <logK (HEXADECANE)>
4.62

>  <mean polarizability>
16.27

>  <dipole moment>
2.05324492039

$$$$
422
 OpenBabel08101817183D

 23 22  0  0  0  0  0  0  0  0999 V2000
   -3.7680    0.0967   -0.0957 C   0  0  0  0  0  0  0  0  0  0  0  0
   -2.3433    0.4482   -0.5242 C   0  0  0  0  0  0  0  0  0  0  0  0
   -1.2724   -0.3413    0.2321 C   0  0  0  0  0  0  0  0  0  0  0  0
    0.1580   -0.0029   -0.1950 C   0  0  0  0  0  0  0  0  0  0  0  0
    1.2184   -0.8076    0.5622 C   0  0  0  0  0  0  0  0  0  0  0  0
    2.6684   -0.5714    0.1006 C   0  0  0  0  0  0  0  0  0  0  0  0
    3.1626    0.8264    0.4271 C   0  0  0  0  0  0  0  0  0  0  0  0
    5.2444    1.1239   -0.1599 I   0  0  0  0  0  0  0  0  0  0  0  0
   -3.9823   -0.9686   -0.2640 H   0  0  0  0  0  0  0  0  0  0  0  0
   -3.9231    0.2992    0.9740 H   0  0  0  0  0  0  0  0  0  0  0  0
   -4.5129    0.6782   -0.6556 H   0  0  0  0  0  0  0  0  0  0  0  0
   -2.1693    1.5268   -0.3771 H   0  0  0  0  0  0  0  0  0  0  0  0
   -2.2285    0.2680   -1.6057 H   0  0  0  0  0  0  0  0  0  0  0  0
   -1.4485   -1.4213    0.0889 H   0  0  0  0  0  0  0  0  0  0  0  0
   -1.3832   -0.1584    1.3148 H   0  0  0  0  0  0  0  0  0  0  0  0
    0.2683   -0.1891   -1.2771 H   0  0  0  0  0  0  0  0  0  0  0  0
    0.3263    1.0773   -0.0532 H   0  0  0  0  0  0  0  0  0  0  0  0
    1.1394   -0.5981    1.6425 H   0  0  0  0  0  0  0  0  0  0  0  0
    0.9993   -1.8815    0.4469 H   0  0  0  0  0  0  0  0  0  0  0  0
    3.3263   -1.3076    0.5844 H   0  0  0  0  0  0  0  0  0  0  0  0
    2.7455   -0.7476   -0.9832 H   0  0  0  0  0  0  0  0  0  0  0  0
    3.1515    1.0352    1.5020 H   0  0  0  0  0  0  0  0  0  0  0  0
    2.6230    1.6153   -0.1042 H   0  0  0  0  0  0  0  0  0  0  0  0
  1 10  1  0  0  0  0
  2 12  1  0  0  0  0
  2  1  1  0  0  0  0
  2  3  1  0  0  0  0
  3 15  1  0  0  0  0
  4 17  1  0  0  0  0
  4  3  1  0  0  0  0
  4  5  1  0  0  0  0
  5 18  1  0  0  0  0
  6  7  1  0  0  0  0
  6  5  1  0  0  0  0
  6 20  1  0  0  0  0
  7 22  1  0  0  0  0
  8  7  1  0  0  0  0
  9  1  1  0  0  0  0
 11  1  1  0  0  0  0
 13  2  1  0  0  0  0
 14  3  1  0  0  0  0
 16  4  1  0  0  0  0
 19  5  1  0  0  0  0
 21  6  1  0  0  0  0
 23  7  1  0  0  0  0
M  END
>  <Charge>
0.0

>  <InChI>
1/C7H15I/c1-2-3-4-5-6-7-8/h2-7H2,1H3

>  <Molecular Formula>
C_{7}H_{15}I

>  <Name>
1-IODOHEPTANE

>  <SMILES>
CCCCCCCI

>  <logK (HEXADECANE)>
5.09

>  <mean polarizability>
18.66

>  <dipole moment>
2.33851278357

$$$$
423
 OpenBabel08101817183D

  5  4  0  0  0  0  0  0  0  0999 V2000
   -0.0008   -0.2151    0.0022 C   0  0  0  0  0  0  0  0  0  0  0  0
    1.8273    0.9218   -0.0194 I   0  0  0  0  0  0  0  0  0  0  0  0
   -1.8202    0.9359    0.0008 I   0  0  0  0  0  0  0  0  0  0  0  0
   -0.0082   -0.8303   -0.8967 H   0  0  0  0  0  0  0  0  0  0  0  0
    0.0019   -0.8123    0.9131 H   0  0  0  0  0  0  0  0  0  0  0  0
  1  5  1  0  0  0  0
  2  1  1  0  0  0  0
  3  1  1  0  0  0  0
  4  1  1  0  0  0  0
M  END
>  <Charge>
0.0

>  <InChI>
1/CH2I2/c2-1-3/h1H2

>  <Molecular Formula>
CH_{2}I_{2}

>  <Name>
DIIODOMETHANE

>  <SMILES>
C(I)I

>  <logK (HEXADECANE)>
3.853

>  <mean polarizability>
11.11

>  <dipole moment>
1.14777590334

>  <experimental polarizability source>
@Article{Bosque2002, Title = {Polarizabilities of Solvents from the Chemical Composition}, Author = {Bosque, Ramon and Sales, Joaquim}, Journal = {Journal of Chemical Information and Computer Sciences}, Year = {2002}, Note = {PMID: 12377003}, Number = {5}, Pages = {1154-1163}, Volume = {42}, Doi = {10.1021/ci025528x}, Url = {https://doi.org/10.1021/ci025528x}}

>  <Formula>
CH2I2

$$$$
424
 OpenBabel08101817183D

  8  7  0  0  0  0  0  0  0  0999 V2000
   -0.7803   -0.1458   -0.0990 C   0  0  0  0  0  0  0  0  0  0  0  0
    0.7586    0.0926    0.1400 C   0  0  0  0  0  0  0  0  0  0  0  0
    0.9329    0.4608    1.4322 F   0  0  0  0  0  0  0  0  0  0  0  0
    1.6312   -1.4304   -0.1467 Cl  0  0  0  0  0  0  0  0  0  0  0  0
    1.3665    1.3713   -0.9257 Cl  0  0  0  0  0  0  0  0  0  0  0  0
   -0.9931   -0.5119   -1.3775 F   0  0  0  0  0  0  0  0  0  0  0  0
   -1.1926   -1.1499    0.7045 F   0  0  0  0  0  0  0  0  0  0  0  0
   -1.7231    1.3133    0.2722 Cl  0  0  0  0  0  0  0  0  0  0  0  0
  1  2  1  0  0  0  0
  1  8  1  0  0  0  0
  1  7  1  0  0  0  0
  2  3  1  0  0  0  0
  4  2  1  0  0  0  0
  5  2  1  0  0  0  0
  6  1  1  0  0  0  0
M  END
>  <Charge>
0.0

>  <InChI>
1/C2Cl3F3/c3-1(4,6)2(5,7)8

>  <Molecular Formula>
C_{2}Cl_{3}F_{3}

>  <Name>
1,1,2-TRICHLORO-1,2,2-TRIFLUOROETHANE

>  <SMILES>
C(C(F)(Cl)Cl)(F)(F)Cl

>  <logK (5,8,11,14-TETRAOXAOCTADECANE)>
2.275

>  <logK (ACETONE)>
2.43

>  <logK (BUTANONE)>
2.46

>  <logK (CARBON TETRACHLORIDE)>
2.4

>  <logK (CHLOROFORM)>
2.54

>  <logK (DICHLOROETHANE)>
2.05

>  <logK (DIETHYLENE GLYCOL DIBUTYL ETHER)>
2.314

>  <logK (DIISOPROPYL ETHER)>
2.557

>  <logK (ETHYL ACETATE)>
2.49

>  <logK (HEXADECANE)>
2.123

>  <logK (M-XYLENE)>
2.472

>  <logK (METHYL ACETATE)>
2.476

>  <logK (METHYL TERT-BUTYL ETHER)>
2.65

>  <logK (TETRAHYDROFURAN)>
2.47

>  <mean polarizability>
10.82

>  <dipole moment>
0.437854636327

$$$$
425
 OpenBabel08101817183D

  8  7  0  0  1  0  0  0  0  0999 V2000
    0.7279   -0.2238   -0.0564 C   0  0  2  0  0  0  0  0  0  0  0  0
   -0.7759    0.1198   -0.0457 C   0  0  0  0  0  0  0  0  0  0  0  0
   -1.4544   -0.8779   -0.6644 F   0  0  0  0  0  0  0  0  0  0  0  0
   -1.2658    0.2497    1.1982 F   0  0  0  0  0  0  0  0  0  0  0  0
   -1.0028    1.2619   -0.7280 F   0  0  0  0  0  0  0  0  0  0  0  0
    0.9141   -1.4105    0.5901 F   0  0  0  0  0  0  0  0  0  0  0  0
    1.7737    1.1844    0.7969 Br  0  0  0  0  0  0  0  0  0  0  0  0
    1.0833   -0.3035   -1.0907 H   0  0  0  0  0  0  0  0  0  0  0  0
  1  8  1  6  0  0  0
  1  2  1  0  0  0  0
  1  6  1  0  0  0  0
  1  7  1  0  0  0  0
  2  4  1  0  0  0  0
  3  2  1  0  0  0  0
  5  2  1  0  0  0  0
M  END
>  <Charge>
0.0

>  <InChI>
1/C2HBrF4/c3-1(4)2(5,6)7/h1H

>  <Molecular Formula>
C_{2}HBrF_{4}

>  <Name>
TEFLURANE

>  <SMILES>
C(C(F)(F)F)(F)Br

>  <logK (HEXADECANE)>
1.37

>  <mean polarizability>
7.52

>  <dipole moment>
1.33541713885

$$$$
426
 OpenBabel08101817183D

  8  7  0  0  1  0  0  0  0  0999 V2000
    0.7300    0.0209    0.1593 C   0  0  1  0  0  0  0  0  0  0  0  0
   -0.7902   -0.1053   -0.0623 C   0  0  0  0  0  0  0  0  0  0  0  0
   -1.1784   -1.3822    0.1704 F   0  0  0  0  0  0  0  0  0  0  0  0
   -1.1662    0.2286   -1.3080 F   0  0  0  0  0  0  0  0  0  0  0  0
   -1.4523    0.6858    0.8128 F   0  0  0  0  0  0  0  0  0  0  0  0
    1.6093   -1.0763   -0.9106 Cl  0  0  0  0  0  0  0  0  0  0  0  0
    1.2936    1.8789   -0.0561 Br  0  0  0  0  0  0  0  0  0  0  0  0
    0.9542   -0.2503    1.1944 H   0  0  0  0  0  0  0  0  0  0  0  0
  1  8  1  1  0  0  0
  2  1  1  0  0  0  0
  2  3  1  0  0  0  0
  2  5  1  0  0  0  0
  4  2  1  0  0  0  0
  6  1  1  0  0  0  0
  7  1  1  0  0  0  0
M  END
>  <Charge>
0.0

>  <InChI>
1/C2HBrClF3/c3-1(4)2(5,6)7/h1H

>  <Molecular Formula>
C_{2}HBrClF_{3}

>  <Name>
HALOTHANE

>  <SMILES>
C(C(F)(F)F)(Cl)Br

>  <logK (1,4-DIOXANE)>
3.23

>  <logK (ACETONE)>
3.5

>  <logK (HEXADECANE)>
2.177

>  <logK (METHYL ACETATE)>
3.378

>  <logK (METHYL TERT-BUTYL ETHER)>
3.44

>  <logK (TETRAHYDROFURAN)>
3.67

>  <mean polarizability>
9.41

>  <dipole moment>
1.25368776212

$$$$
427
 OpenBabel08101817183D

 12 11  0  0  1  0  0  0  0  0999 V2000
   -1.7000    0.5862    0.0376 C   0  0  1  0  0  0  0  0  0  0  0  0
   -0.4408   -0.3099    0.1219 C   0  0  0  0  0  0  0  0  0  0  0  0
    0.6509    0.5061   -0.0773 O   0  0  0  0  0  0  0  0  0  0  0  0
    1.9085   -0.1166   -0.1114 C   0  0  0  0  0  0  0  0  0  0  0  0
    2.3890   -0.0555   -1.3772 F   0  0  0  0  0  0  0  0  0  0  0  0
    2.7335    0.6075    0.6803 F   0  0  0  0  0  0  0  0  0  0  0  0
   -0.3819   -0.9051    1.3549 F   0  0  0  0  0  0  0  0  0  0  0  0
   -0.4836   -1.3172   -0.7934 F   0  0  0  0  0  0  0  0  0  0  0  0
   -1.7618    1.1388   -1.2108 F   0  0  0  0  0  0  0  0  0  0  0  0
   -3.1636   -0.3586    0.3636 Cl  0  0  0  0  0  0  0  0  0  0  0  0
   -1.6317    1.3852    0.7863 H   0  0  0  0  0  0  0  0  0  0  0  0
    1.8815   -1.1609    0.2257 H   0  0  0  0  0  0  0  0  0  0  0  0
  1  2  1  0  0  0  0
  1 10  1  0  0  0  0
  1 11  1  1  0  0  0
  2  7  1  0  0  0  0
  3  2  1  0  0  0  0
  4  3  1  0  0  0  0
  4 12  1  0  0  0  0
  4  6  1  0  0  0  0
  5  4  1  0  0  0  0
  8  2  1  0  0  0  0
  9  1  1  0  0  0  0
M  END
>  <Charge>
0.0

>  <InChI>
1/C3H2ClF5O/c4-1(5)3(8,9)10-2(6)7/h1-2H

>  <Molecular Formula>
C_{3}H_{2}ClF_{5}O

>  <Name>
ENFLURANE

>  <SMILES>
C(C(OC(F)F)(F)F)(F)Cl

>  <logK (HEXADECANE)>
1.653

>  <mean polarizability>
9.58

>  <dipole moment>
1.34424480696

$$$$
428
 OpenBabel08101817183D

 12 11  0  0  0  0  0  0  0  0999 V2000
   -1.8762   -0.5511    0.1566 C   0  0  0  0  0  0  0  0  0  0  0  0
   -0.4580   -0.5670    0.4374 O   0  0  0  0  0  0  0  0  0  0  0  0
    0.2806    0.3646   -0.2087 C   0  0  0  0  0  0  0  0  0  0  0  0
    1.7628    0.1892    0.2022 C   0  0  0  0  0  0  0  0  0  0  0  0
    2.7671    1.4647   -0.5171 Cl  0  0  0  0  0  0  0  0  0  0  0  0
    2.3491   -1.4316   -0.2340 Cl  0  0  0  0  0  0  0  0  0  0  0  0
   -0.1147    1.6455    0.1381 F   0  0  0  0  0  0  0  0  0  0  0  0
    0.1320    0.2967   -1.5710 F   0  0  0  0  0  0  0  0  0  0  0  0
   -2.3167    0.4125    0.4411 H   0  0  0  0  0  0  0  0  0  0  0  0
   -2.2971   -1.3511    0.7708 H   0  0  0  0  0  0  0  0  0  0  0  0
   -2.0610   -0.7564   -0.9047 H   0  0  0  0  0  0  0  0  0  0  0  0
    1.8317    0.2839    1.2893 H   0  0  0  0  0  0  0  0  0  0  0  0
  1  2  1  0  0  0  0
  1  9  1  0  0  0  0
  1 10  1  0  0  0  0
  3  7  1  0  0  0  0
  3  4  1  0  0  0  0
  3  2  1  0  0  0  0
  4 12  1  0  0  0  0
  5  4  1  0  0  0  0
  6  4  1  0  0  0  0
  8  3  1  0  0  0  0
 11  1  1  0  0  0  0
M  END
>  <Charge>
0.0

>  <InChI>
1/C3H4Cl2F2O/c1-8-3(6,7)2(4)5/h2H,1H3

>  <Molecular Formula>
C_{3}H_{4}Cl_{2}F_{2}O

>  <Name>
METHOXYFLURANE

>  <SMILES>
COC(C(Cl)Cl)(F)F

>  <logK (HEXADECANE)>
2.864

>  <mean polarizability>
11.12

>  <dipole moment>
2.44033761529

$$$$
429
 OpenBabel08101817183D

 12 11  0  0  1  0  0  0  0  0999 V2000
    0.4467    0.2678   -0.2975 C   0  0  2  0  0  0  0  0  0  0  0  0
    1.7037   -0.2034    0.4690 C   0  0  0  0  0  0  0  0  0  0  0  0
    2.0390   -1.4688    0.1736 F   0  0  0  0  0  0  0  0  0  0  0  0
    1.4651   -0.1238    1.8001 F   0  0  0  0  0  0  0  0  0  0  0  0
    2.7494    0.6014    0.1874 F   0  0  0  0  0  0  0  0  0  0  0  0
   -0.5951   -0.5845    0.0602 O   0  0  0  0  0  0  0  0  0  0  0  0
   -1.8802   -0.0639   -0.0459 C   0  0  0  0  0  0  0  0  0  0  0  0
   -2.4175   -0.3673   -1.2588 F   0  0  0  0  0  0  0  0  0  0  0  0
   -2.6271   -0.6749    0.8993 F   0  0  0  0  0  0  0  0  0  0  0  0
    0.7803    0.2757   -2.0665 Cl  0  0  0  0  0  0  0  0  0  0  0  0
    0.2455    1.3120   -0.0158 H   0  0  0  0  0  0  0  0  0  0  0  0
   -1.9098    1.0297    0.0947 H   0  0  0  0  0  0  0  0  0  0  0  0
  1 11  1  1  0  0  0
  1  6  1  0  0  0  0
  1  2  1  0  0  0  0
  2  4  1  0  0  0  0
  3  2  1  0  0  0  0
  5  2  1  0  0  0  0
  7  6  1  0  0  0  0
  7 12  1  0  0  0  0
  7  9  1  0  0  0  0
  8  7  1  0  0  0  0
 10  1  1  0  0  0  0
M  END
>  <Charge>
0.0

>  <InChI>
1/C3H2ClF5O/c4-1(3(7,8)9)10-2(5)6/h1-2H

>  <Molecular Formula>
C_{3}H_{2}ClF_{5}O

>  <Name>
ISOFLURANE

>  <SMILES>
C(C(F)(F)F)(OC(F)F)Cl

>  <logK (HEXADECANE)>
1.576

>  <mean polarizability>
9.61

>  <dipole moment>
2.41118321439

$$$$
430
 OpenBabel08101817183D

 13 12  0  0  0  0  0  0  0  0999 V2000
    2.6443    0.4371   -0.0006 C   0  0  0  0  0  0  0  0  0  0  0  0
    1.4984   -0.2444   -0.0060 C   0  0  0  0  0  0  0  0  0  0  0  0
    0.2886    0.3722   -0.1955 O   0  0  0  0  0  0  0  0  0  0  0  0
   -0.8298   -0.4939   -0.1730 C   0  0  0  0  0  0  0  0  0  0  0  0
   -2.0864    0.3364   -0.3951 C   0  0  0  0  0  0  0  0  0  0  0  0
   -2.2615    1.2689    0.5681 F   0  0  0  0  0  0  0  0  0  0  0  0
   -2.0761    0.9728   -1.5878 F   0  0  0  0  0  0  0  0  0  0  0  0
   -3.1678   -0.4897   -0.3745 F   0  0  0  0  0  0  0  0  0  0  0  0
    2.6699    1.5151   -0.1468 H   0  0  0  0  0  0  0  0  0  0  0  0
    3.5791   -0.0943    0.1533 H   0  0  0  0  0  0  0  0  0  0  0  0
    1.4558   -1.3280    0.1394 H   0  0  0  0  0  0  0  0  0  0  0  0
   -0.9336   -1.0042    0.7989 H   0  0  0  0  0  0  0  0  0  0  0  0
   -0.7808   -1.2479   -0.9760 H   0  0  0  0  0  0  0  0  0  0  0  0
  1 10  1  0  0  0  0
  2  1  2  0  0  0  0
  2 11  1  0  0  0  0
  3  4  1  0  0  0  0
  3  2  1  0  0  0  0
  4 12  1  0  0  0  0
  5  8  1  0  0  0  0
  5  4  1  0  0  0  0
  5  6  1  0  0  0  0
  7  5  1  0  0  0  0
  9  1  1  0  0  0  0
 13  4  1  0  0  0  0
M  END
>  <Charge>
0.0

>  <InChI>
1/C4H5F3O/c1-2-8-3-4(5,6)7/h2H,1,3H2

>  <Molecular Formula>
C_{4}H_{5}F_{3}O

>  <Name>
FLUROXENE

>  <SMILES>
C=COCC(F)(F)F

>  <logK (HEXADECANE)>
1.4

>  <mean polarizability>
9.22

>  <dipole moment>
2.49955084342

$$$$
431
 OpenBabel08101817183D

  9  8  0  0  0  0  0  0  0  0999 V2000
    1.2621   -0.3659    0.1385 C   0  0  0  0  0  0  0  0  0  0  0  0
    0.4292    0.1902   -0.7441 C   0  0  0  0  0  0  0  0  0  0  0  0
   -1.0431    0.2668   -0.5473 C   0  0  0  0  0  0  0  0  0  0  0  0
   -1.9261   -0.6344   -1.8583 Cl  0  0  0  0  0  0  0  0  0  0  0  0
    2.3388   -0.3836   -0.0265 H   0  0  0  0  0  0  0  0  0  0  0  0
    0.8940   -0.8214    1.0597 H   0  0  0  0  0  0  0  0  0  0  0  0
    0.8151    0.6303   -1.6668 H   0  0  0  0  0  0  0  0  0  0  0  0
   -1.3546   -0.1782    0.4037 H   0  0  0  0  0  0  0  0  0  0  0  0
   -1.4154    1.2962   -0.6102 H   0  0  0  0  0  0  0  0  0  0  0  0
  1  6  1  0  0  0  0
  2  3  1  0  0  0  0
  2  1  2  0  0  0  0
  3  8  1  0  0  0  0
  4  3  1  0  0  0  0
  5  1  1  0  0  0  0
  7  2  1  0  0  0  0
  9  3  1  0  0  0  0
M  END
>  <Charge>
0.0

>  <InChI>
1/C3H5Cl/c1-2-3-4/h2H,1,3H2

>  <Molecular Formula>
C_{3}H_{5}Cl

>  <Name>
ALLYL CHLORIDE

>  <SMILES>
C=CCCl

>  <logK (HEXADECANE)>
2.109

>  <mean polarizability>
8.16

>  <dipole moment>
1.9609590131

$$$$
432
 OpenBabel08101817183D

  9  8  0  0  0  0  0  0  0  0999 V2000
   -1.3649   -0.4613    0.0488 C   0  0  0  0  0  0  0  0  0  0  0  0
   -0.3174    0.2244   -0.4183 C   0  0  0  0  0  0  0  0  0  0  0  0
    0.9725    0.3344    0.3004 C   0  0  0  0  0  0  0  0  0  0  0  0
    2.4359   -0.5411   -0.7357 Br  0  0  0  0  0  0  0  0  0  0  0  0
   -1.3141   -1.0039    0.9946 H   0  0  0  0  0  0  0  0  0  0  0  0
   -2.3076   -0.5020   -0.4954 H   0  0  0  0  0  0  0  0  0  0  0  0
   -0.3871    0.7513   -1.3729 H   0  0  0  0  0  0  0  0  0  0  0  0
    1.3190    1.3670    0.4072 H   0  0  0  0  0  0  0  0  0  0  0  0
    0.9636   -0.1686    1.2714 H   0  0  0  0  0  0  0  0  0  0  0  0
  1  5  1  0  0  0  0
  2  1  2  0  0  0  0
  2  3  1  0  0  0  0
  3  8  1  0  0  0  0
  3  9  1  0  0  0  0
  4  3  1  0  0  0  0
  6  1  1  0  0  0  0
  7  2  1  0  0  0  0
M  END
>  <Charge>
0.0

>  <InChI>
1/C3H5Br/c1-2-3-4/h2H,1,3H2

>  <Molecular Formula>
C_{3}H_{5}Br

>  <Name>
ALLYL BROMIDE

>  <SMILES>
C=CCBr

>  <logK (HEXADECANE)>
2.51

>  <mean polarizability>
8.99

>  <dipole moment>
1.96730512514

$$$$
433
 OpenBabel08101817183D

  9  8  0  0  0  0  0  0  0  0999 V2000
   -1.4298   -0.2783   -0.0038 C   0  0  0  0  0  0  0  0  0  0  0  0
   -0.3246    0.4713   -0.0837 C   0  0  0  0  0  0  0  0  0  0  0  0
    1.0204   -0.0110    0.2904 C   0  0  0  0  0  0  0  0  0  0  0  0
    2.3342   -0.1544   -1.4807 I   0  0  0  0  0  0  0  0  0  0  0  0
   -2.4082    0.1217   -0.2665 H   0  0  0  0  0  0  0  0  0  0  0  0
   -1.3909   -1.3171    0.3284 H   0  0  0  0  0  0  0  0  0  0  0  0
   -0.3907    1.5049   -0.4327 H   0  0  0  0  0  0  0  0  0  0  0  0
    1.0186   -1.0183    0.7150 H   0  0  0  0  0  0  0  0  0  0  0  0
    1.5711    0.6811    0.9334 H   0  0  0  0  0  0  0  0  0  0  0  0
  1  6  1  0  0  0  0
  2  1  2  0  0  0  0
  2  3  1  0  0  0  0
  3  8  1  0  0  0  0
  3  9  1  0  0  0  0
  4  3  1  0  0  0  0
  5  1  1  0  0  0  0
  7  2  1  0  0  0  0
M  END
>  <Charge>
0.0

>  <InChI>
1/C3H5I/c1-2-3-4/h2H,1,3H2

>  <Molecular Formula>
C_{3}H_{5}I

>  <Name>
ALLYL IODIDE

>  <SMILES>
C=CCI

>  <logK (HEXADECANE)>
3.01

>  <mean polarizability>
10.86

>  <dipole moment>
1.84952643835

$$$$
434
 OpenBabel08101817183D

 15 15  0  0  0  0  0  0  0  0999 V2000
    2.2142    0.0137   -0.0607 C   0  0  0  0  0  0  0  0  0  0  0  0
    0.7141   -0.0191   -0.0196 C   0  0  0  0  0  0  0  0  0  0  0  0
    0.0137   -1.2340   -0.0064 C   0  0  0  0  0  0  0  0  0  0  0  0
   -1.3795   -1.2828    0.0316 C   0  0  0  0  0  0  0  0  0  0  0  0
   -2.1145   -0.0974    0.0576 C   0  0  0  0  0  0  0  0  0  0  0  0
   -1.4508    1.1290    0.0454 C   0  0  0  0  0  0  0  0  0  0  0  0
   -0.0570    1.1548    0.0073 C   0  0  0  0  0  0  0  0  0  0  0  0
    0.7428    2.7092   -0.0070 Cl  0  0  0  0  0  0  0  0  0  0  0  0
    2.6244   -1.0028   -0.0770 H   0  0  0  0  0  0  0  0  0  0  0  0
    2.5772    0.5500   -0.9490 H   0  0  0  0  0  0  0  0  0  0  0  0
    2.6256    0.5413    0.8116 H   0  0  0  0  0  0  0  0  0  0  0  0
    0.5872   -2.1622   -0.0267 H   0  0  0  0  0  0  0  0  0  0  0  0
   -1.8895   -2.2458    0.0403 H   0  0  0  0  0  0  0  0  0  0  0  0
   -3.2036   -0.1203    0.0874 H   0  0  0  0  0  0  0  0  0  0  0  0
   -2.0042    2.0664    0.0652 H   0  0  0  0  0  0  0  0  0  0  0  0
  1  2  1  0  0  0  0
  1 11  1  0  0  0  0
  2  3  2  0  0  0  0
  2  7  1  0  0  0  0
  3  4  1  0  0  0  0
  4 13  1  0  0  0  0
  4  5  2  0  0  0  0
  5 14  1  0  0  0  0
  6  5  1  0  0  0  0
  6 15  1  0  0  0  0
  7  6  2  0  0  0  0
  8  7  1  0  0  0  0
  9  1  1  0  0  0  0
 10  1  1  0  0  0  0
 12  3  1  0  0  0  0
M  END
>  <Charge>
0.0

>  <InChI>
1/C7H7Cl/c1-6-4-2-3-5-7(6)8/h2-5H,1H3

>  <Molecular Formula>
C_{7}H_{7}Cl

>  <Name>
2-CHLOROTOLUENE

>  <SMILES>
Cc1ccccc1Cl

>  <logK (HEXADECANE)>
4.16

>  <mean polarizability>
14.46

>  <dipole moment>
1.38394729081

$$$$
435
 OpenBabel08101817183D

 15 15  0  0  0  0  0  0  0  0999 V2000
   -2.1829   -0.3275   -0.1522 C   0  0  0  0  0  0  0  0  0  0  0  0
   -0.6984   -0.1288   -0.0518 C   0  0  0  0  0  0  0  0  0  0  0  0
    0.1819   -1.2178   -0.1484 C   0  0  0  0  0  0  0  0  0  0  0  0
    1.5645   -1.0618   -0.0587 C   0  0  0  0  0  0  0  0  0  0  0  0
    2.1083    0.2081    0.1330 C   0  0  0  0  0  0  0  0  0  0  0  0
    1.2642    1.3145    0.2338 C   0  0  0  0  0  0  0  0  0  0  0  0
   -0.1143    1.1327    0.1408 C   0  0  0  0  0  0  0  0  0  0  0  0
   -1.2310    2.6840    0.2854 Br  0  0  0  0  0  0  0  0  0  0  0  0
   -2.4237   -1.3865   -0.3015 H   0  0  0  0  0  0  0  0  0  0  0  0
   -2.6061    0.2474   -0.9882 H   0  0  0  0  0  0  0  0  0  0  0  0
   -2.6939    0.0214    0.7564 H   0  0  0  0  0  0  0  0  0  0  0  0
   -0.2416   -2.2124   -0.2985 H   0  0  0  0  0  0  0  0  0  0  0  0
    2.2156   -1.9320   -0.1387 H   0  0  0  0  0  0  0  0  0  0  0  0
    3.1870    0.3458    0.2051 H   0  0  0  0  0  0  0  0  0  0  0  0
    1.6704    2.3132    0.3835 H   0  0  0  0  0  0  0  0  0  0  0  0
  1  2  1  0  0  0  0
  1 11  1  0  0  0  0
  2  7  2  0  0  0  0
  3  4  2  0  0  0  0
  3  2  1  0  0  0  0
  4  5  1  0  0  0  0
  5 14  1  0  0  0  0
  5  6  2  0  0  0  0
  6 15  1  0  0  0  0
  7  6  1  0  0  0  0
  7  8  1  0  0  0  0
  9  1  1  0  0  0  0
 10  1  1  0  0  0  0
 12  3  1  0  0  0  0
 13  4  1  0  0  0  0
M  END
>  <Charge>
0.0

>  <InChI>
1/C7H7Br/c1-6-4-2-3-5-7(6)8/h2-5H,1H3

>  <Molecular Formula>
C_{7}H_{7}Br

>  <Name>
2-BROMOTOLUENE

>  <SMILES>
Cc1ccccc1Br

>  <logK (HEXADECANE)>
4.52

>  <mean polarizability>
15.3

>  <dipole moment>
1.42422593314

$$$$
436
 OpenBabel08101817183D

 15 15  0  0  0  0  0  0  0  0999 V2000
   -2.2505    0.0612   -0.1533 C   0  0  0  0  0  0  0  0  0  0  0  0
   -0.7500   -0.0204   -0.0488 C   0  0  0  0  0  0  0  0  0  0  0  0
   -0.0919   -1.2509    0.0635 C   0  0  0  0  0  0  0  0  0  0  0  0
    1.2996   -1.3126    0.1597 C   0  0  0  0  0  0  0  0  0  0  0  0
    2.0668   -0.1476    0.1460 C   0  0  0  0  0  0  0  0  0  0  0  0
    1.4061    1.0751    0.0339 C   0  0  0  0  0  0  0  0  0  0  0  0
    0.0203    1.1530   -0.0627 C   0  0  0  0  0  0  0  0  0  0  0  0
    2.4317    2.6898    0.0117 Br  0  0  0  0  0  0  0  0  0  0  0  0
   -2.6753    0.6490    0.6728 H   0  0  0  0  0  0  0  0  0  0  0  0
   -2.5579    0.5509   -1.0883 H   0  0  0  0  0  0  0  0  0  0  0  0
   -2.7067   -0.9357   -0.1282 H   0  0  0  0  0  0  0  0  0  0  0  0
   -0.6768   -2.1716    0.0757 H   0  0  0  0  0  0  0  0  0  0  0  0
    1.7976   -2.2786    0.2467 H   0  0  0  0  0  0  0  0  0  0  0  0
    3.1516   -0.1865    0.2206 H   0  0  0  0  0  0  0  0  0  0  0  0
   -0.4646    2.1251   -0.1493 H   0  0  0  0  0  0  0  0  0  0  0  0
  1 11  1  0  0  0  0
  1  2  1  0  0  0  0
  1  9  1  0  0  0  0
  2  3  1  0  0  0  0
  3 12  1  0  0  0  0
  3  4  2  0  0  0  0
  4 13  1  0  0  0  0
  5  4  1  0  0  0  0
  5 14  1  0  0  0  0
  6  5  2  0  0  0  0
  7  2  2  0  0  0  0
  7  6  1  0  0  0  0
  8  6  1  0  0  0  0
 10  1  1  0  0  0  0
 15  7  1  0  0  0  0
M  END
>  <Charge>
0.0

>  <InChI>
1/C7H7Br/c1-6-3-2-4-7(8)5-6/h2-5H,1H3

>  <Molecular Formula>
C_{7}H_{7}Br

>  <Name>
3-BROMOTOLUENE

>  <SMILES>
Cc1cccc(c1)Br

>  <logK (HEXADECANE)>
4.54

>  <mean polarizability>
15.45

>  <dipole moment>
1.96443994396

$$$$
437
 OpenBabel08101817183D

 15 15  0  0  0  0  0  0  0  0999 V2000
    2.2787    0.1695   -0.0323 C   0  0  0  0  0  0  0  0  0  0  0  0
    0.7767    0.0637   -0.0104 C   0  0  0  0  0  0  0  0  0  0  0  0
   -0.0322    1.1968    0.1360 C   0  0  0  0  0  0  0  0  0  0  0  0
   -1.4260    1.1031    0.1568 C   0  0  0  0  0  0  0  0  0  0  0  0
   -2.0200   -0.1491    0.0287 C   0  0  0  0  0  0  0  0  0  0  0  0
   -1.2456   -1.2993   -0.1187 C   0  0  0  0  0  0  0  0  0  0  0  0
    0.1435   -1.1817   -0.1368 C   0  0  0  0  0  0  0  0  0  0  0  0
   -3.9257   -0.2964    0.0551 Br  0  0  0  0  0  0  0  0  0  0  0  0
    2.6089    1.2095    0.0778 H   0  0  0  0  0  0  0  0  0  0  0  0
    2.7314   -0.4158    0.7810 H   0  0  0  0  0  0  0  0  0  0  0  0
    2.6918   -0.2173   -0.9750 H   0  0  0  0  0  0  0  0  0  0  0  0
    0.4321    2.1794    0.2365 H   0  0  0  0  0  0  0  0  0  0  0  0
   -2.0400    1.9947    0.2715 H   0  0  0  0  0  0  0  0  0  0  0  0
   -1.7212   -2.2734   -0.2179 H   0  0  0  0  0  0  0  0  0  0  0  0
    0.7476   -2.0836   -0.2523 H   0  0  0  0  0  0  0  0  0  0  0  0
  1  2  1  0  0  0  0
  1  9  1  0  0  0  0
  1 10  1  0  0  0  0
  2  3  2  0  0  0  0
  3  4  1  0  0  0  0
  3 12  1  0  0  0  0
  4 13  1  0  0  0  0
  5  8  1  0  0  0  0
  5  4  2  0  0  0  0
  6  5  1  0  0  0  0
  7  6  2  0  0  0  0
  7  2  1  0  0  0  0
 11  1  1  0  0  0  0
 14  6  1  0  0  0  0
 15  7  1  0  0  0  0
M  END
>  <Charge>
0.0

>  <InChI>
1/C7H7Br/c1-6-2-4-7(8)5-3-6/h2-5H,1H3

>  <Molecular Formula>
C_{7}H_{7}Br

>  <Name>
4-BROMOTOLUENE

>  <SMILES>
Cc1ccc(cc1)Br

>  <logK (HEXADECANE)>
4.54

>  <mean polarizability>
15.53

>  <dipole moment>
2.1796449182

$$$$
438
 OpenBabel08101817183D

 15 14  0  0  0  0  0  0  0  0999 V2000
   -2.0568    0.2935   -0.5387 C   0  0  0  0  0  0  0  0  0  0  0  0
   -0.8205    0.2004    0.3551 C   0  0  0  0  0  0  0  0  0  0  0  0
    0.3491   -0.5186   -0.3179 C   0  0  0  0  0  0  0  0  0  0  0  0
    1.6117   -0.6170    0.5379 C   0  0  0  0  0  0  0  0  0  0  0  0
    2.4270    0.9790    0.9272 S   0  0  0  0  0  0  0  0  0  0  0  0
   -1.8405    0.8558   -1.4586 H   0  0  0  0  0  0  0  0  0  0  0  0
   -2.4129   -0.7035   -0.8372 H   0  0  0  0  0  0  0  0  0  0  0  0
   -2.8843    0.8022   -0.0261 H   0  0  0  0  0  0  0  0  0  0  0  0
   -0.4970    1.2089    0.6541 H   0  0  0  0  0  0  0  0  0  0  0  0
   -1.0768   -0.3301    1.2873 H   0  0  0  0  0  0  0  0  0  0  0  0
    0.0419   -1.5466   -0.5801 H   0  0  0  0  0  0  0  0  0  0  0  0
    0.5932   -0.0212   -1.2711 H   0  0  0  0  0  0  0  0  0  0  0  0
    1.3755   -1.0383    1.5262 H   0  0  0  0  0  0  0  0  0  0  0  0
    2.3541   -1.2798    0.0760 H   0  0  0  0  0  0  0  0  0  0  0  0
    2.8362    1.2512   -0.3339 H   0  0  0  0  0  0  0  0  0  0  0  0
  1  8  1  0  0  0  0
  1  2  1  0  0  0  0
  2  9  1  0  0  0  0
  2 10  1  0  0  0  0
  3  2  1  0  0  0  0
  3  4  1  0  0  0  0
  4  5  1  0  0  0  0
  4 13  1  0  0  0  0
  6  1  1  0  0  0  0
  7  1  1  0  0  0  0
 11  3  1  0  0  0  0
 12  3  1  0  0  0  0
 14  4  1  0  0  0  0
 15  5  1  0  0  0  0
M  END
>  <Charge>
0.0

>  <InChI>
1/C4H10S/c1-2-3-4-5/h5H,2-4H2,1H3

>  <Molecular Formula>
C_{4}H_{10}S

>  <Name>
BUTANETHIOL

>  <SMILES>
CCCCS

>  <logK (HEXADECANE)>
2.88

>  <mean polarizability>
11.13

>  <dipole moment>
1.54496042388

$$$$
439
 OpenBabel08101817183D

 15 14  0  0  0  0  0  0  0  0999 V2000
   -2.6993    0.1789    0.4491 C   0  0  0  0  0  0  0  0  0  0  0  0
   -1.4062    0.0534   -0.3487 C   0  0  0  0  0  0  0  0  0  0  0  0
    0.0256    0.0511    0.7813 S   0  0  0  0  0  0  0  0  0  0  0  0
    1.3807   -0.1049   -0.4295 C   0  0  0  0  0  0  0  0  0  0  0  0
    2.7236   -0.1299    0.2919 C   0  0  0  0  0  0  0  0  0  0  0  0
   -2.8164   -0.6588    1.1492 H   0  0  0  0  0  0  0  0  0  0  0  0
   -3.5652    0.1806   -0.2270 H   0  0  0  0  0  0  0  0  0  0  0  0
   -2.7189    1.1112    1.0289 H   0  0  0  0  0  0  0  0  0  0  0  0
   -1.3974   -0.8801   -0.9306 H   0  0  0  0  0  0  0  0  0  0  0  0
   -1.2996    0.8934   -1.0509 H   0  0  0  0  0  0  0  0  0  0  0  0
    1.2325   -1.0292   -1.0072 H   0  0  0  0  0  0  0  0  0  0  0  0
    1.3298    0.7443   -1.1269 H   0  0  0  0  0  0  0  0  0  0  0  0
    2.8823    0.7921    0.8668 H   0  0  0  0  0  0  0  0  0  0  0  0
    2.7850   -0.9780    0.9867 H   0  0  0  0  0  0  0  0  0  0  0  0
    3.5436   -0.2240   -0.4330 H   0  0  0  0  0  0  0  0  0  0  0  0
  1  8  1  0  0  0  0
  1  6  1  0  0  0  0
  2  1  1  0  0  0  0
  2  3  1  0  0  0  0
  4  5  1  0  0  0  0
  4  3  1  0  0  0  0
  5 13  1  0  0  0  0
  5 14  1  0  0  0  0
  7  1  1  0  0  0  0
  9  2  1  0  0  0  0
 10  2  1  0  0  0  0
 11  4  1  0  0  0  0
 12  4  1  0  0  0  0
 15  5  1  0  0  0  0
M  END
>  <Charge>
0.0

>  <InChI>
1/C4H10S/c1-3-5-4-2/h3-4H2,1-2H3

>  <Molecular Formula>
C_{4}H_{10}S

>  <Name>
DIETHYL SULFIDE

>  <SMILES>
CCSCC

>  <logK (HEXADECANE)>
3.104

>  <mean polarizability>
11.38

>  <dipole moment>
1.56226666886

$$$$
440
 OpenBabel08101817183D

 21 20  0  0  0  0  0  0  0  0999 V2000
   -3.4273   -0.8178    0.0250 C   0  0  0  0  0  0  0  0  0  0  0  0
   -2.8564    0.5901   -0.1482 C   0  0  0  0  0  0  0  0  0  0  0  0
   -1.4294    0.7577    0.3758 C   0  0  0  0  0  0  0  0  0  0  0  0
   -0.2400   -0.2144   -0.6125 S   0  0  0  0  0  0  0  0  0  0  0  0
    1.2958    0.2008    0.2776 C   0  0  0  0  0  0  0  0  0  0  0  0
    2.4968   -0.4630   -0.3927 C   0  0  0  0  0  0  0  0  0  0  0  0
    3.8059   -0.1663    0.3405 C   0  0  0  0  0  0  0  0  0  0  0  0
   -3.4224   -1.1172    1.0831 H   0  0  0  0  0  0  0  0  0  0  0  0
   -4.4643   -0.8685   -0.3325 H   0  0  0  0  0  0  0  0  0  0  0  0
   -2.8411   -1.5608   -0.5308 H   0  0  0  0  0  0  0  0  0  0  0  0
   -3.4923    1.3131    0.3866 H   0  0  0  0  0  0  0  0  0  0  0  0
   -2.8871    0.8813   -1.2097 H   0  0  0  0  0  0  0  0  0  0  0  0
   -1.3669    0.4293    1.4253 H   0  0  0  0  0  0  0  0  0  0  0  0
   -1.1294    1.8148    0.3310 H   0  0  0  0  0  0  0  0  0  0  0  0
    1.2039   -0.1373    1.3215 H   0  0  0  0  0  0  0  0  0  0  0  0
    1.4176    1.2952    0.2856 H   0  0  0  0  0  0  0  0  0  0  0  0
    2.5641   -0.1177   -1.4354 H   0  0  0  0  0  0  0  0  0  0  0  0
    2.3311   -1.5502   -0.4361 H   0  0  0  0  0  0  0  0  0  0  0  0
    4.0092    0.9133    0.3760 H   0  0  0  0  0  0  0  0  0  0  0  0
    4.6566   -0.6488   -0.1588 H   0  0  0  0  0  0  0  0  0  0  0  0
    3.7757   -0.5336    1.3761 H   0  0  0  0  0  0  0  0  0  0  0  0
  1  8  1  0  0  0  0
  2  1  1  0  0  0  0
  2  3  1  0  0  0  0
  2 11  1  0  0  0  0
  3 13  1  0  0  0  0
  4  5  1  0  0  0  0
  4  3  1  0  0  0  0
  5 16  1  0  0  0  0
  5 15  1  0  0  0  0
  6  5  1  0  0  0  0
  6  7  1  0  0  0  0
  7 19  1  0  0  0  0
  7 21  1  0  0  0  0
  9  1  1  0  0  0  0
 10  1  1  0  0  0  0
 12  2  1  0  0  0  0
 14  3  1  0  0  0  0
 17  6  1  0  0  0  0
 18  6  1  0  0  0  0
 20  7  1  0  0  0  0
M  END
>  <Charge>
0.0

>  <InChI>
1/C6H14S/c1-3-5-7-6-4-2/h3-6H2,1-2H3

>  <Molecular Formula>
C_{6}H_{14}S

>  <Name>
PROPYL SULFIDE

>  <SMILES>
CCCSCCC

>  <logK (HEXADECANE)>
4.12

>  <mean polarizability>
15.28

>  <dipole moment>
1.42714313205

$$$$
441
 OpenBabel08101817183D

 21 20  0  0  0  0  0  0  0  0999 V2000
   -1.8298   -1.2683    0.2631 C   0  0  0  0  0  0  0  0  0  0  0  0
   -1.6641    0.0411   -0.5076 C   0  0  0  0  0  0  0  0  0  0  0  0
   -1.9610    1.2671    0.3562 C   0  0  0  0  0  0  0  0  0  0  0  0
   -0.0609    0.1746   -1.4053 S   0  0  0  0  0  0  0  0  0  0  0  0
    1.2105    0.1069   -0.0685 C   0  0  0  0  0  0  0  0  0  0  0  0
    1.8413   -1.2819    0.0469 C   0  0  0  0  0  0  0  0  0  0  0  0
    2.2625    1.1845   -0.3383 C   0  0  0  0  0  0  0  0  0  0  0  0
   -1.1347   -1.3225    1.1127 H   0  0  0  0  0  0  0  0  0  0  0  0
   -1.6508   -2.1367   -0.3823 H   0  0  0  0  0  0  0  0  0  0  0  0
   -2.8495   -1.3417    0.6712 H   0  0  0  0  0  0  0  0  0  0  0  0
   -2.3626    0.0363   -1.3594 H   0  0  0  0  0  0  0  0  0  0  0  0
   -2.9735    1.1980    0.7825 H   0  0  0  0  0  0  0  0  0  0  0  0
   -1.2588    1.3440    1.1986 H   0  0  0  0  0  0  0  0  0  0  0  0
   -1.8912    2.1911   -0.2298 H   0  0  0  0  0  0  0  0  0  0  0  0
    0.6837    0.3504    0.8659 H   0  0  0  0  0  0  0  0  0  0  0  0
    1.0899   -2.0544    0.2483 H   0  0  0  0  0  0  0  0  0  0  0  0
    2.5839   -1.3001    0.8601 H   0  0  0  0  0  0  0  0  0  0  0  0
    2.3548   -1.5505   -0.8868 H   0  0  0  0  0  0  0  0  0  0  0  0
    1.8161    2.1858   -0.3486 H   0  0  0  0  0  0  0  0  0  0  0  0
    2.7474    1.0216   -1.3116 H   0  0  0  0  0  0  0  0  0  0  0  0
    3.0469    1.1547    0.4328 H   0  0  0  0  0  0  0  0  0  0  0  0
  1 10  1  0  0  0  0
  1  8  1  0  0  0  0
  2  1  1  0  0  0  0
  2  3  1  0  0  0  0
  3 12  1  0  0  0  0
  3 13  1  0  0  0  0
  4  2  1  0  0  0  0
  4  5  1  0  0  0  0
  5  6  1  0  0  0  0
  5 15  1  0  0  0  0
  6 16  1  0  0  0  0
  6 17  1  0  0  0  0
  7  5  1  0  0  0  0
  7 21  1  0  0  0  0
  9  1  1  0  0  0  0
 11  2  1  0  0  0  0
 14  3  1  0  0  0  0
 18  6  1  0  0  0  0
 19  7  1  0  0  0  0
 20  7  1  0  0  0  0
M  END
>  <Charge>
0.0

>  <InChI>
1/C6H14S/c1-5(2)7-6(3)4/h5-6H,1-4H3

>  <Molecular Formula>
C_{6}H_{14}S

>  <Name>
2,2'-THIODIPROPANE

>  <SMILES>
CC(C)SC(C)C

>  <logK (HEXADECANE)>
3.6

>  <mean polarizability>
15.11

>  <dipole moment>
1.62482011392

$$$$
442
 OpenBabel08101817183D

 10  9  0  0  0  0  0  0  0  0999 V2000
    1.8385   -0.2578   -0.5000 C   0  0  0  0  0  0  0  0  0  0  0  0
    0.7798    1.2223   -0.6291 S   0  0  0  0  0  0  0  0  0  0  0  0
   -1.0683    0.4793   -1.0864 S   0  0  0  0  0  0  0  0  0  0  0  0
   -1.8116    0.0999    0.5360 C   0  0  0  0  0  0  0  0  0  0  0  0
    2.8576    0.1169   -0.3324 H   0  0  0  0  0  0  0  0  0  0  0  0
    1.8102   -0.8325   -1.4316 H   0  0  0  0  0  0  0  0  0  0  0  0
    1.5436   -0.8860    0.3479 H   0  0  0  0  0  0  0  0  0  0  0  0
   -1.2747   -0.7108    1.0409 H   0  0  0  0  0  0  0  0  0  0  0  0
   -1.8358    0.9951    1.1661 H   0  0  0  0  0  0  0  0  0  0  0  0
   -2.8392   -0.2264    0.3250 H   0  0  0  0  0  0  0  0  0  0  0  0
  1  5  1  0  0  0  0
  1  7  1  0  0  0  0
  2  1  1  0  0  0  0
  3  2  1  0  0  0  0
  3  4  1  0  0  0  0
  4  8  1  0  0  0  0
  4  9  1  0  0  0  0
  6  1  1  0  0  0  0
 10  4  1  0  0  0  0
M  END
>  <Charge>
0.0

>  <InChI>
1/C2H6S2/c1-3-4-2/h1-2H3

>  <Molecular Formula>
C_{2}H_{6}S_{2}

>  <Name>
DIMETHYL DISULFIDE

>  <SMILES>
CSSC

>  <logK (HEXADECANE)>
3.549

>  <mean polarizability>
10.68

>  <dipole moment>
1.96920818319

$$$$
443
 OpenBabel08101817183D

 16 15  0  0  0  0  0  0  0  0999 V2000
    2.8179    0.5050    0.2017 C   0  0  0  0  0  0  0  0  0  0  0  0
    1.8274   -0.1846   -0.7225 C   0  0  0  0  0  0  0  0  0  0  0  0
    0.6422   -1.2977    0.1351 S   0  0  0  0  0  0  0  0  0  0  0  0
   -0.4843   -0.0442    1.2965 S   0  0  0  0  0  0  0  0  0  0  0  0
   -1.8617    0.4819    0.1986 C   0  0  0  0  0  0  0  0  0  0  0  0
   -2.8025   -0.6416   -0.2055 C   0  0  0  0  0  0  0  0  0  0  0  0
    3.4260   -0.2281    0.7468 H   0  0  0  0  0  0  0  0  0  0  0  0
    2.2909    1.1271    0.9370 H   0  0  0  0  0  0  0  0  0  0  0  0
    3.4920    1.1569   -0.3730 H   0  0  0  0  0  0  0  0  0  0  0  0
    2.3332   -0.8639   -1.4266 H   0  0  0  0  0  0  0  0  0  0  0  0
    1.2544    0.5362   -1.3209 H   0  0  0  0  0  0  0  0  0  0  0  0
   -1.4330    0.9922   -0.6742 H   0  0  0  0  0  0  0  0  0  0  0  0
   -2.3761    1.2458    0.8028 H   0  0  0  0  0  0  0  0  0  0  0  0
   -3.2704   -1.1009    0.6746 H   0  0  0  0  0  0  0  0  0  0  0  0
   -3.5979   -0.2607   -0.8627 H   0  0  0  0  0  0  0  0  0  0  0  0
   -2.2580   -1.4234   -0.7511 H   0  0  0  0  0  0  0  0  0  0  0  0
  1  7  1  0  0  0  0
  1  8  1  0  0  0  0
  2  3  1  0  0  0  0
  2  1  1  0  0  0  0
  3  4  1  0  0  0  0
  5 13  1  0  0  0  0
  5  4  1  0  0  0  0
  6  5  1  0  0  0  0
  6 14  1  0  0  0  0
  9  1  1  0  0  0  0
 10  2  1  0  0  0  0
 11  2  1  0  0  0  0
 12  5  1  0  0  0  0
 15  6  1  0  0  0  0
 16  6  1  0  0  0  0
M  END
>  <Charge>
0.0

>  <InChI>
1/C4H10S2/c1-3-5-6-4-2/h3-4H2,1-2H3

>  <Molecular Formula>
C_{4}H_{10}S_{2}

>  <Name>
DIETHYL DISULFIDE

>  <SMILES>
CCSSCC

>  <logK (HEXADECANE)>
4.21

>  <mean polarizability>
14.62

>  <dipole moment>
2.0199829945

$$$$
444
 OpenBabel08101817183D

 12 12  0  0  0  0  0  0  0  0999 V2000
   -1.9825   -0.3337    0.1208 C   0  0  0  0  0  0  0  0  0  0  0  0
   -0.4937   -0.2091    0.0449 C   0  0  0  0  0  0  0  0  0  0  0  0
    0.2632    0.9287   -0.1193 C   0  0  0  0  0  0  0  0  0  0  0  0
    1.6648    0.6825   -0.1484 C   0  0  0  0  0  0  0  0  0  0  0  0
    1.9683   -0.6480   -0.0055 C   0  0  0  0  0  0  0  0  0  0  0  0
    0.5406   -1.5956    0.1644 S   0  0  0  0  0  0  0  0  0  0  0  0
   -2.4412    0.6583    0.0240 H   0  0  0  0  0  0  0  0  0  0  0  0
   -2.3126   -0.7641    1.0771 H   0  0  0  0  0  0  0  0  0  0  0  0
   -2.3850   -0.9691   -0.6812 H   0  0  0  0  0  0  0  0  0  0  0  0
   -0.1835    1.9172   -0.2164 H   0  0  0  0  0  0  0  0  0  0  0  0
    2.4187    1.4575   -0.2702 H   0  0  0  0  0  0  0  0  0  0  0  0
    2.9427   -1.1247    0.0099 H   0  0  0  0  0  0  0  0  0  0  0  0
  1  8  1  0  0  0  0
  2  1  1  0  0  0  0
  2  6  1  0  0  0  0
  3  2  2  0  0  0  0
  4  3  1  0  0  0  0
  4  5  2  0  0  0  0
  5 12  1  0  0  0  0
  5  6  1  0  0  0  0
  7  1  1  0  0  0  0
  9  1  1  0  0  0  0
 10  3  1  0  0  0  0
 11  4  1  0  0  0  0
M  END
>  <Charge>
0.0

>  <InChI>
1/C5H6S/c1-5-3-2-4-6-5/h2-4H,1H3

>  <Molecular Formula>
C_{5}H_{6}S

>  <Name>
METHYLTHIOL

>  <SMILES>
Cc1cccs1

>  <logK (HEXADECANE)>
3.302

>  <mean polarizability>
11.44

>  <dipole moment>
0.663368457284

$$$$
445
 OpenBabel08101817183D

 13 13  0  0  0  0  0  0  0  0999 V2000
   -1.6747    0.3461    0.1755 C   0  0  0  0  0  0  0  0  0  0  0  0
   -1.2933   -0.9972    0.1801 C   0  0  0  0  0  0  0  0  0  0  0  0
    0.0471   -1.3543    0.0424 C   0  0  0  0  0  0  0  0  0  0  0  0
    1.0280   -0.3615   -0.1020 C   0  0  0  0  0  0  0  0  0  0  0  0
    0.6462    0.9876   -0.1065 C   0  0  0  0  0  0  0  0  0  0  0  0
   -0.6978    1.3332    0.0314 C   0  0  0  0  0  0  0  0  0  0  0  0
    2.7104   -0.8897   -0.2708 S   0  0  0  0  0  0  0  0  0  0  0  0
   -2.7233    0.6211    0.2832 H   0  0  0  0  0  0  0  0  0  0  0  0
   -2.0446   -1.7792    0.2915 H   0  0  0  0  0  0  0  0  0  0  0  0
    0.3344   -2.4062    0.0463 H   0  0  0  0  0  0  0  0  0  0  0  0
    1.3990    1.7686   -0.2165 H   0  0  0  0  0  0  0  0  0  0  0  0
   -0.9803    2.3863    0.0262 H   0  0  0  0  0  0  0  0  0  0  0  0
    3.2490    0.3450   -0.3806 H   0  0  0  0  0  0  0  0  0  0  0  0
  1  2  1  0  0  0  0
  1  8  1  0  0  0  0
  2  9  1  0  0  0  0
  3 10  1  0  0  0  0
  3  2  2  0  0  0  0
  4  3  1  0  0  0  0
  5  4  2  0  0  0  0
  5  6  1  0  0  0  0
  6  1  2  0  0  0  0
  7  4  1  0  0  0  0
 11  5  1  0  0  0  0
 12  6  1  0  0  0  0
 13  7  1  0  0  0  0
M  END
>  <Charge>
0.0

>  <InChI>
1/C6H6S/c7-6-4-2-1-3-5-6/h1-5,7H

>  <Molecular Formula>
C_{6}H_{6}S

>  <Name>
THIOPHENOL

>  <SMILES>
c1ccc(cc1)S

>  <logK (HEXADECANE)>
4.118

>  <mean polarizability>
13.73

>  <dipole moment>
0.949171664722

$$$$
446
 OpenBabel08101817183D

 12 11  0  0  0  0  0  0  0  0999 V2000
   -1.9778   -0.0609   -0.0311 C   0  0  0  0  0  0  0  0  0  0  0  0
   -0.5824   -0.0764    0.5357 C   0  0  0  0  0  0  0  0  0  0  0  0
   -0.3344   -0.2035    1.7216 O   0  0  0  0  0  0  0  0  0  0  0  0
    0.6004    0.0826   -0.4726 C   0  0  0  0  0  0  0  0  0  0  0  0
    0.3720    0.2111   -1.6619 O   0  0  0  0  0  0  0  0  0  0  0  0
    1.9794    0.0628    0.1244 C   0  0  0  0  0  0  0  0  0  0  0  0
   -2.5434    0.7530    0.4425 H   0  0  0  0  0  0  0  0  0  0  0  0
   -2.4808   -0.9988    0.2409 H   0  0  0  0  0  0  0  0  0  0  0  0
   -1.9759    0.0642   -1.1175 H   0  0  0  0  0  0  0  0  0  0  0  0
    2.0764    0.8618    0.8729 H   0  0  0  0  0  0  0  0  0  0  0  0
    2.7282    0.1803   -0.6638 H   0  0  0  0  0  0  0  0  0  0  0  0
    2.1383   -0.8763    0.6727 H   0  0  0  0  0  0  0  0  0  0  0  0
  1  8  1  0  0  0  0
  1  7  1  0  0  0  0
  1  2  1  0  0  0  0
  2  3  2  0  0  0  0
  4  6  1  0  0  0  0
  4  2  1  0  0  0  0
  5  4  2  0  0  0  0
  6 12  1  0  0  0  0
  6 10  1  0  0  0  0
  9  1  1  0  0  0  0
 11  6  1  0  0  0  0
M  END
>  <Charge>
0.0

>  <InChI>
1/C4H6O2/c1-3(5)4(2)6/h1-2H3

>  <Molecular Formula>
C_{4}H_{6}O_{2}

>  <Name>
BIACETYL

>  <SMILES>
CC(=O)C(=O)C

>  <logK (METHYLCYCLOHEXANE)>
2.6

>  <mean polarizability>
8.47

>  <dipole moment>
0.12684941345

$$$$
447
 OpenBabel08101817183D

 14 13  0  0  0  0  0  0  0  0999 V2000
   -1.9602    0.3837    0.6611 C   0  0  0  0  0  0  0  0  0  0  0  0
   -1.3347   -0.7233   -0.1451 C   0  0  0  0  0  0  0  0  0  0  0  0
   -1.9637   -1.6705   -0.5837 O   0  0  0  0  0  0  0  0  0  0  0  0
    0.1650   -0.6462   -0.4266 C   0  0  0  0  0  0  0  0  0  0  0  0
    0.7565    0.5029    0.1472 O   0  0  0  0  0  0  0  0  0  0  0  0
    2.1484    0.5739   -0.1201 C   0  0  0  0  0  0  0  0  0  0  0  0
   -1.8031    1.3488    0.1581 H   0  0  0  0  0  0  0  0  0  0  0  0
   -1.4582    0.4716    1.6353 H   0  0  0  0  0  0  0  0  0  0  0  0
   -3.0285    0.1870    0.7921 H   0  0  0  0  0  0  0  0  0  0  0  0
    0.2967   -0.6625   -1.5268 H   0  0  0  0  0  0  0  0  0  0  0  0
    0.6251   -1.5763   -0.0382 H   0  0  0  0  0  0  0  0  0  0  0  0
    2.5228    1.4889    0.3526 H   0  0  0  0  0  0  0  0  0  0  0  0
    2.3494    0.6182   -1.2060 H   0  0  0  0  0  0  0  0  0  0  0  0
    2.6847   -0.2962    0.3000 H   0  0  0  0  0  0  0  0  0  0  0  0
  1  9  1  0  0  0  0
  1  8  1  0  0  0  0
  2  1  1  0  0  0  0
  3  2  2  0  0  0  0
  4  2  1  0  0  0  0
  4 11  1  0  0  0  0
  4  5  1  0  0  0  0
  6  5  1  0  0  0  0
  6 14  1  0  0  0  0
  6 12  1  0  0  0  0
  7  1  1  0  0  0  0
 10  4  1  0  0  0  0
 13  6  1  0  0  0  0
M  END
>  <Charge>
0.0

>  <InChI>
1/C4H8O2/c1-4(5)3-6-2/h3H2,1-2H3

>  <Molecular Formula>
C_{4}H_{8}O_{2}

>  <Name>
1-METHOXYACETONE

>  <SMILES>
CC(=O)COC

>  <logK (METHYLCYCLOHEXANE)>
2.6

>  <mean polarizability>
9.18

>  <dipole moment>
2.87001305625

$$$$
448
 OpenBabel08101817183D

 14 13  0  0  1  0  0  0  0  0999 V2000
   -1.4438    0.8107    0.4923 C   0  0  0  0  0  0  0  0  0  0  0  0
   -0.8122   -0.5686    0.2806 C   0  0  0  0  0  0  0  0  0  0  0  0
    0.4957   -0.5130   -0.5055 C   0  0  1  0  0  0  0  0  0  0  0  0
    1.6369    0.1925    0.2072 C   0  0  0  0  0  0  0  0  0  0  0  0
    1.0163   -2.2197   -0.8996 Cl  0  0  0  0  0  0  0  0  0  0  0  0
   -1.6224    1.3205   -0.4654 H   0  0  0  0  0  0  0  0  0  0  0  0
   -2.4123    0.7125    0.9997 H   0  0  0  0  0  0  0  0  0  0  0  0
   -0.8144    1.4650    1.1097 H   0  0  0  0  0  0  0  0  0  0  0  0
   -0.6214   -1.0552    1.2495 H   0  0  0  0  0  0  0  0  0  0  0  0
   -1.5154   -1.2156   -0.2622 H   0  0  0  0  0  0  0  0  0  0  0  0
    0.3198   -0.0571   -1.4897 H   0  0  0  0  0  0  0  0  0  0  0  0
    2.5520    0.1697   -0.3959 H   0  0  0  0  0  0  0  0  0  0  0  0
    1.3752    1.2446    0.3898 H   0  0  0  0  0  0  0  0  0  0  0  0
    1.8458   -0.2862    1.1733 H   0  0  0  0  0  0  0  0  0  0  0  0
  1  7  1  0  0  0  0
  1  8  1  0  0  0  0
  2  1  1  0  0  0  0
  2  9  1  0  0  0  0
  3 11  1  6  0  0  0
  3  4  1  0  0  0  0
  3  2  1  0  0  0  0
  4 13  1  0  0  0  0
  4 14  1  0  0  0  0
  5  3  1  0  0  0  0
  6  1  1  0  0  0  0
 10  2  1  0  0  0  0
 12  4  1  0  0  0  0
M  END
>  <Charge>
0.0

>  <InChI>
1/C4H9Cl/c1-3-4(2)5/h4H,3H2,1-2H3

>  <Molecular Formula>
C_{4}H_{9}Cl

>  <Name>
2-CHLOROBUTANE

>  <SMILES>
CCC(C)Cl

>  <logK (1-CHLOROBUTANE)>
3.052

>  <logK (1-HEXADECENE)>
2.537838333

>  <logK (DIISOPROPYL ETHER)>
2.893

>  <mean polarizability>
10.12

>  <dipole moment>
2.26520362437

$$$$
449
 OpenBabel08101817183D

 20 20  0  0  0  0  0  0  0  0999 V2000
    2.2966    0.2457   -0.4767 C   0  0  0  0  0  0  0  0  0  0  0  0
    0.8535    0.1256   -0.4186 N   0  0  0  0  0  0  0  0  0  0  0  0
    0.2209    1.1429    0.4145 C   0  0  0  0  0  0  0  0  0  0  0  0
   -1.2916    1.2054    0.1148 C   0  0  0  0  0  0  0  0  0  0  0  0
   -1.8166   -0.1584   -0.3711 C   0  0  0  0  0  0  0  0  0  0  0  0
   -1.0560   -1.2869    0.3260 C   0  0  0  0  0  0  0  0  0  0  0  0
    0.4480   -1.2224   -0.0103 C   0  0  0  0  0  0  0  0  0  0  0  0
    2.7032   -0.5047   -1.1696 H   0  0  0  0  0  0  0  0  0  0  0  0
    2.5769    1.2410   -0.8474 H   0  0  0  0  0  0  0  0  0  0  0  0
    2.7872    0.0919    0.5114 H   0  0  0  0  0  0  0  0  0  0  0  0
    0.6943    2.1106    0.1979 H   0  0  0  0  0  0  0  0  0  0  0  0
    0.3983    0.9457    1.4977 H   0  0  0  0  0  0  0  0  0  0  0  0
   -1.4912    1.9714   -0.6475 H   0  0  0  0  0  0  0  0  0  0  0  0
   -1.8256    1.5157    1.0256 H   0  0  0  0  0  0  0  0  0  0  0  0
   -2.8959   -0.2428   -0.1807 H   0  0  0  0  0  0  0  0  0  0  0  0
   -1.6768   -0.2441   -1.4581 H   0  0  0  0  0  0  0  0  0  0  0  0
   -1.1996   -1.1954    1.4138 H   0  0  0  0  0  0  0  0  0  0  0  0
   -1.4558   -2.2707    0.0441 H   0  0  0  0  0  0  0  0  0  0  0  0
    0.6912   -1.9083   -0.8375 H   0  0  0  0  0  0  0  0  0  0  0  0
    1.0391   -1.5624    0.8714 H   0  0  0  0  0  0  0  0  0  0  0  0
  1  2  1  0  0  0  0
  1 10  1  0  0  0  0
  2  7  1  0  0  0  0
  2  3  1  0  0  0  0
  3 12  1  0  0  0  0
  4  3  1  0  0  0  0
  4 14  1  0  0  0  0
  5 15  1  0  0  0  0
  5  4  1  0  0  0  0
  5  6  1  0  0  0  0
  6 17  1  0  0  0  0
  7  6  1  0  0  0  0
  7 20  1  0  0  0  0
  8  1  1  0  0  0  0
  9  1  1  0  0  0  0
 11  3  1  0  0  0  0
 13  4  1  0  0  0  0
 16  5  1  0  0  0  0
 18  6  1  0  0  0  0
 19  7  1  0  0  0  0
M  END
>  <Charge>
0.0

>  <InChI>
1/C6H13N/c1-7-5-3-2-4-6-7/h2-6H2,1H3

>  <Molecular Formula>
C_{6}H_{13}N

>  <Name>
1-METHYLPIPERIDINE

>  <SMILES>
CN1CCCCC1

>  <logK (CHLOROFORM)>
4.21

>  <logK (METHYL TERT-BUTYL ETHER)>
3.52

>  <mean polarizability>
12.69

>  <dipole moment>
0.297605930486

$$$$
450
 OpenBabel08101817183D

 21 20  0  0  0  0  0  0  0  0999 V2000
   -2.6951   -0.9095   -0.5265 C   0  0  0  0  0  0  0  0  0  0  0  0
   -2.4062    0.2287    0.4557 C   0  0  0  0  0  0  0  0  0  0  0  0
   -1.1211    1.0129    0.1627 C   0  0  0  0  0  0  0  0  0  0  0  0
    0.1516    0.2038    0.3639 C   0  0  0  0  0  0  0  0  0  0  0  0
    1.2689    1.0596    0.1452 O   0  0  0  0  0  0  0  0  0  0  0  0
    2.5282    0.4418    0.4003 C   0  0  0  0  0  0  0  0  0  0  0  0
    2.9831   -0.5190   -0.6942 C   0  0  0  0  0  0  0  0  0  0  0  0
   -3.6568   -1.3913   -0.3031 H   0  0  0  0  0  0  0  0  0  0  0  0
   -1.9231   -1.6906   -0.4932 H   0  0  0  0  0  0  0  0  0  0  0  0
   -2.7426   -0.5351   -1.5598 H   0  0  0  0  0  0  0  0  0  0  0  0
   -3.2509    0.9339    0.4441 H   0  0  0  0  0  0  0  0  0  0  0  0
   -2.3633   -0.1708    1.4826 H   0  0  0  0  0  0  0  0  0  0  0  0
   -1.0675    1.8957    0.8177 H   0  0  0  0  0  0  0  0  0  0  0  0
   -1.1408    1.3914   -0.8719 H   0  0  0  0  0  0  0  0  0  0  0  0
    0.1871   -0.1997    1.3974 H   0  0  0  0  0  0  0  0  0  0  0  0
    0.1788   -0.6596   -0.3257 H   0  0  0  0  0  0  0  0  0  0  0  0
    2.4988   -0.0754    1.3792 H   0  0  0  0  0  0  0  0  0  0  0  0
    3.2421    1.2732    0.4880 H   0  0  0  0  0  0  0  0  0  0  0  0
    2.3162   -1.3863   -0.7884 H   0  0  0  0  0  0  0  0  0  0  0  0
    3.0237   -0.0053   -1.6641 H   0  0  0  0  0  0  0  0  0  0  0  0
    3.9889   -0.8983   -0.4640 H   0  0  0  0  0  0  0  0  0  0  0  0
  1  9  1  0  0  0  0
  1  8  1  0  0  0  0
  1  2  1  0  0  0  0
  2 12  1  0  0  0  0
  3  4  1  0  0  0  0
  3  2  1  0  0  0  0
  3 13  1  0  0  0  0
  4 15  1  0  0  0  0
  5  4  1  0  0  0  0
  5  6  1  0  0  0  0
  6 18  1  0  0  0  0
  6 17  1  0  0  0  0
  7 21  1  0  0  0  0
  7  6  1  0  0  0  0
 10  1  1  0  0  0  0
 11  2  1  0  0  0  0
 14  3  1  0  0  0  0
 16  4  1  0  0  0  0
 19  7  1  0  0  0  0
 20  7  1  0  0  0  0
M  END
>  <Charge>
0.0

>  <InChI>
1/C6H14O/c1-3-5-6-7-4-2/h3-6H2,1-2H3

>  <Molecular Formula>
C_{6}H_{14}O

>  <Name>
1-ETHOXYBUTANE

>  <SMILES>
CCCCOCC

>  <logK (1-ETHOXYBUTANE)>
3.381

>  <logK (CARBON TETRACHLORIDE)>
3.6

>  <mean polarizability>
12.69

>  <dipole moment>
1.07038522567

>  <Formula>
C6H14O

$$$$
451
 OpenBabel08101817183D

 18 17  0  0  0  0  0  0  0  0999 V2000
   -2.7467   -0.5249   -0.4460 C   0  0  0  0  0  0  0  0  0  0  0  0
   -1.2237   -0.4651   -0.5590 C   0  0  0  0  0  0  0  0  0  0  0  0
   -0.6116    0.6740    0.2599 C   0  0  0  0  0  0  0  0  0  0  0  0
    0.9000    0.7810    0.1385 C   0  0  0  0  0  0  0  0  0  0  0  0
    1.5020   -0.3856    0.6889 O   0  0  0  0  0  0  0  0  0  0  0  0
    2.9121   -0.3605    0.5793 C   0  0  0  0  0  0  0  0  0  0  0  0
   -3.1626   -1.3488   -1.0417 H   0  0  0  0  0  0  0  0  0  0  0  0
   -3.2109    0.4082   -0.7983 H   0  0  0  0  0  0  0  0  0  0  0  0
   -3.0621   -0.6767    0.5965 H   0  0  0  0  0  0  0  0  0  0  0  0
   -0.9353   -0.3424   -1.6163 H   0  0  0  0  0  0  0  0  0  0  0  0
   -0.7856   -1.4185   -0.2300 H   0  0  0  0  0  0  0  0  0  0  0  0
   -1.0452    1.6362   -0.0596 H   0  0  0  0  0  0  0  0  0  0  0  0
   -0.8720    0.5515    1.3238 H   0  0  0  0  0  0  0  0  0  0  0  0
    1.1950    0.8874   -0.9260 H   0  0  0  0  0  0  0  0  0  0  0  0
    1.2689    1.6795    0.6722 H   0  0  0  0  0  0  0  0  0  0  0  0
    3.2926   -1.2839    1.0321 H   0  0  0  0  0  0  0  0  0  0  0  0
    3.3472    0.5062    1.1117 H   0  0  0  0  0  0  0  0  0  0  0  0
    3.2377   -0.3175   -0.4771 H   0  0  0  0  0  0  0  0  0  0  0  0
  1  9  1  0  0  0  0
  2  1  1  0  0  0  0
  2 11  1  0  0  0  0
  2  3  1  0  0  0  0
  3 13  1  0  0  0  0
  4  3  1  0  0  0  0
  4 15  1  0  0  0  0
  4  5  1  0  0  0  0
  6  5  1  0  0  0  0
  6 16  1  0  0  0  0
  6 17  1  0  0  0  0
  7  1  1  0  0  0  0
  8  1  1  0  0  0  0
 10  2  1  0  0  0  0
 12  3  1  0  0  0  0
 14  4  1  0  0  0  0
 18  6  1  0  0  0  0
M  END
>  <Charge>
0.0

>  <InChI>
1/C5H12O/c1-3-4-5-6-2/h3-5H2,1-2H3

>  <Molecular Formula>
C_{5}H_{12}O

>  <Name>
1-METHOXYBUTANE

>  <SMILES>
CCCCOC

>  <logK (1-CHLOROBUTANE)>
3.119

>  <logK (1-METHOXYBUTANE)>
3.057

>  <logK (CARBON TETRACHLORIDE)>
3.22

>  <logK (DICHLOROMETHANE)>
3.453

>  <mean polarizability>
10.9

>  <dipole moment>
0.994317682187

>  <Formula>
C5H12O

$$$$
452
 OpenBabel08101817183D

 18 17  0  0  0  0  0  0  0  0999 V2000
   -2.5714    0.1527    0.7857 C   0  0  0  0  0  0  0  0  0  0  0  0
   -1.6260   -0.9413    0.2912 C   0  0  0  0  0  0  0  0  0  0  0  0
   -0.3463   -0.4055   -0.3346 C   0  0  0  0  0  0  0  0  0  0  0  0
    0.4054    0.2779    0.6636 O   0  0  0  0  0  0  0  0  0  0  0  0
    1.5480    0.9657    0.1607 C   0  0  0  0  0  0  0  0  0  0  0  0
    2.7115    0.0521   -0.2116 C   0  0  0  0  0  0  0  0  0  0  0  0
   -2.8879    0.8048   -0.0415 H   0  0  0  0  0  0  0  0  0  0  0  0
   -2.0818    0.7814    1.5397 H   0  0  0  0  0  0  0  0  0  0  0  0
   -3.4758   -0.2771    1.2364 H   0  0  0  0  0  0  0  0  0  0  0  0
   -2.1296   -1.5680   -0.4615 H   0  0  0  0  0  0  0  0  0  0  0  0
   -1.3520   -1.6100    1.1217 H   0  0  0  0  0  0  0  0  0  0  0  0
    0.2380   -1.2392   -0.7662 H   0  0  0  0  0  0  0  0  0  0  0  0
   -0.5866    0.2946   -1.1616 H   0  0  0  0  0  0  0  0  0  0  0  0
    1.2556    1.5874   -0.7078 H   0  0  0  0  0  0  0  0  0  0  0  0
    1.8505    1.6472    0.9682 H   0  0  0  0  0  0  0  0  0  0  0  0
    2.4645   -0.6107   -1.0512 H   0  0  0  0  0  0  0  0  0  0  0  0
    3.5794    0.6563   -0.5114 H   0  0  0  0  0  0  0  0  0  0  0  0
    3.0043   -0.5682    0.6456 H   0  0  0  0  0  0  0  0  0  0  0  0
  1  9  1  0  0  0  0
  1  8  1  0  0  0  0
  2  1  1  0  0  0  0
  2 11  1  0  0  0  0
  3  2  1  0  0  0  0
  3  4  1  0  0  0  0
  5  4  1  0  0  0  0
  5 15  1  0  0  0  0
  6  5  1  0  0  0  0
  6 18  1  0  0  0  0
  7  1  1  0  0  0  0
 10  2  1  0  0  0  0
 12  3  1  0  0  0  0
 13  3  1  0  0  0  0
 14  5  1  0  0  0  0
 16  6  1  0  0  0  0
 17  6  1  0  0  0  0
M  END
>  <Charge>
0.0

>  <InChI>
1/C5H12O/c1-3-5-6-4-2/h3-5H2,1-2H3

>  <Molecular Formula>
C_{5}H_{12}O

>  <Name>
1-ETHOXYPROPANE

>  <SMILES>
CCCOCC

>  <logK (1-ETHOXYPROPANE)>
2.93

>  <mean polarizability>
10.82

>  <dipole moment>
1.08332136921

>  <Formula>
C5H12O

$$$$
453
 OpenBabel08101817183D

 15 14  0  0  0  0  0  0  0  0999 V2000
    2.2774    0.3093    0.3023 C   0  0  0  0  0  0  0  0  0  0  0  0
    1.1092   -0.4445   -0.3329 C   0  0  0  0  0  0  0  0  0  0  0  0
   -0.2364    0.1199    0.0917 C   0  0  0  0  0  0  0  0  0  0  0  0
   -1.2754   -0.6233   -0.5324 O   0  0  0  0  0  0  0  0  0  0  0  0
   -2.5597   -0.1463   -0.1776 C   0  0  0  0  0  0  0  0  0  0  0  0
    3.2396   -0.1121   -0.0157 H   0  0  0  0  0  0  0  0  0  0  0  0
    2.2711    1.3719    0.0194 H   0  0  0  0  0  0  0  0  0  0  0  0
    2.2394    0.2578    1.3999 H   0  0  0  0  0  0  0  0  0  0  0  0
    1.1779   -0.4012   -1.4302 H   0  0  0  0  0  0  0  0  0  0  0  0
    1.1464   -1.5091   -0.0573 H   0  0  0  0  0  0  0  0  0  0  0  0
   -0.3451    0.0695    1.1948 H   0  0  0  0  0  0  0  0  0  0  0  0
   -0.3129    1.1897   -0.1927 H   0  0  0  0  0  0  0  0  0  0  0  0
   -2.7018    0.9074   -0.4829 H   0  0  0  0  0  0  0  0  0  0  0  0
   -3.2953   -0.7705   -0.6984 H   0  0  0  0  0  0  0  0  0  0  0  0
   -2.7344   -0.2184    0.9123 H   0  0  0  0  0  0  0  0  0  0  0  0
  1  8  1  0  0  0  0
  2 10  1  0  0  0  0
  2  3  1  0  0  0  0
  2  1  1  0  0  0  0
  3 11  1  0  0  0  0
  4  5  1  0  0  0  0
  4  3  1  0  0  0  0
  5 15  1  0  0  0  0
  6  1  1  0  0  0  0
  7  1  1  0  0  0  0
  9  2  1  0  0  0  0
 12  3  1  0  0  0  0
 13  5  1  0  0  0  0
 14  5  1  0  0  0  0
M  END
>  <Charge>
0.0

>  <InChI>
1/C4H10O/c1-3-4-5-2/h3-4H2,1-2H3

>  <Molecular Formula>
C_{4}H_{10}O

>  <Name>
METHOXYPROPANE

>  <SMILES>
CCCOC

>  <logK (METHOXYPROPANE)>
2.59

>  <mean polarizability>
8.98

>  <dipole moment>
1.00601286773

>  <Formula>
C4H10O

$$$$
454
 OpenBabel08101817183D

 15 14  0  0  0  0  0  0  0  0999 V2000
   -1.3734   -1.2040    0.2480 C   0  0  0  0  0  0  0  0  0  0  0  0
   -0.3071   -0.2231   -0.2164 C   0  0  0  0  0  0  0  0  0  0  0  0
   -0.7593    1.2301   -0.0706 C   0  0  0  0  0  0  0  0  0  0  0  0
    0.8673   -0.5044    0.5602 O   0  0  0  0  0  0  0  0  0  0  0  0
    2.0547    0.0632    0.0374 C   0  0  0  0  0  0  0  0  0  0  0  0
   -1.6010   -1.0431    1.3110 H   0  0  0  0  0  0  0  0  0  0  0  0
   -2.2987   -1.0699   -0.3276 H   0  0  0  0  0  0  0  0  0  0  0  0
   -1.0290   -2.2380    0.1221 H   0  0  0  0  0  0  0  0  0  0  0  0
   -0.0702   -0.4203   -1.2821 H   0  0  0  0  0  0  0  0  0  0  0  0
   -1.6611    1.4106   -0.6718 H   0  0  0  0  0  0  0  0  0  0  0  0
   -0.9933    1.4511    0.9800 H   0  0  0  0  0  0  0  0  0  0  0  0
    0.0097    1.9356   -0.4107 H   0  0  0  0  0  0  0  0  0  0  0  0
    2.8848   -0.3198    0.6430 H   0  0  0  0  0  0  0  0  0  0  0  0
    2.2145   -0.2339   -1.0161 H   0  0  0  0  0  0  0  0  0  0  0  0
    2.0621    1.1660    0.0934 H   0  0  0  0  0  0  0  0  0  0  0  0
  1  6  1  0  0  0  0
  2  3  1  0  0  0  0
  2  1  1  0  0  0  0
  2  4  1  0  0  0  0
  3 11  1  0  0  0  0
  5 15  1  0  0  0  0
  5  4  1  0  0  0  0
  5 13  1  0  0  0  0
  7  1  1  0  0  0  0
  8  1  1  0  0  0  0
  9  2  1  0  0  0  0
 10  3  1  0  0  0  0
 12  3  1  0  0  0  0
 14  5  1  0  0  0  0
M  END
>  <Charge>
0.0

>  <InChI>
1/C4H10O/c1-4(2)5-3/h4H,1-3H3

>  <Molecular Formula>
C_{4}H_{10}O

>  <Name>
2-METHOXYPROPANE

>  <SMILES>
CC(C)OC

>  <logK (2-METHOXYPROPANE)>
2.46

>  <mean polarizability>
8.92

>  <dipole moment>
1.17126510163

>  <Formula>
C4H10O

$$$$
455
 OpenBabel08101817183D

 15 15  0  0  0  0  0  0  0  0999 V2000
   -2.0160    0.3882    0.4304 C   0  0  0  0  0  0  0  0  0  0  0  0
   -1.0615    1.3974    0.2938 C   0  0  0  0  0  0  0  0  0  0  0  0
    0.2578    1.0703   -0.0190 C   0  0  0  0  0  0  0  0  0  0  0  0
    0.6329   -0.2686   -0.2053 C   0  0  0  0  0  0  0  0  0  0  0  0
   -0.3372   -1.2738   -0.0841 C   0  0  0  0  0  0  0  0  0  0  0  0
   -1.6512   -0.9474    0.2401 C   0  0  0  0  0  0  0  0  0  0  0  0
    2.0283   -0.6913   -0.5574 C   0  0  0  0  0  0  0  0  0  0  0  0
    2.2994   -1.7595   -1.0566 O   0  0  0  0  0  0  0  0  0  0  0  0
    3.0286    0.1997   -0.2815 O   0  0  0  0  0  0  0  0  0  0  0  0
   -3.0460    0.6442    0.6789 H   0  0  0  0  0  0  0  0  0  0  0  0
   -1.3448    2.4417    0.4235 H   0  0  0  0  0  0  0  0  0  0  0  0
    0.9782    1.8803   -0.1555 H   0  0  0  0  0  0  0  0  0  0  0  0
   -0.0350   -2.3073   -0.2489 H   0  0  0  0  0  0  0  0  0  0  0  0
   -2.3963   -1.7363    0.3421 H   0  0  0  0  0  0  0  0  0  0  0  0
    2.6628    0.9623    0.1995 H   0  0  0  0  0  0  0  0  0  0  0  0
  1 10  1  0  0  0  0
  2 11  1  0  0  0  0
  2  1  1  0  0  0  0
  3  2  2  0  0  0  0
  4  5  2  0  0  0  0
  4  3  1  0  0  0  0
  5  6  1  0  0  0  0
  6 14  1  0  0  0  0
  6  1  2  0  0  0  0
  7  9  1  0  0  0  0
  7  4  1  0  0  0  0
  8  7  2  0  0  0  0
  9 15  1  0  0  0  0
 12  3  1  0  0  0  0
 13  5  1  0  0  0  0
M  END
>  <Charge>
0.0

>  <InChI>
1/C7H6O2/c8-7(9)6-4-2-1-3-5-6/h1-5H,(H,8,9)

>  <Molecular Formula>
C_{7}H_{6}O_{2}

>  <Name>
BENZOIC ACID

>  <SMILES>
c1ccc(cc1)C(=O)O

>  <logK (1,4-DIOXANE)>
7.19

>  <logK (1-HEXADECENE)>
4.276

>  <mean polarizability>
13.34

>  <dipole moment>
4.73506580929

$$$$
456
 OpenBabel08101817183D

 15 15  0  0  0  0  0  0  0  0999 V2000
    1.3906   -0.0718   -0.0119 C   0  0  0  0  0  0  0  0  0  0  0  0
    0.6790    1.2755   -0.1234 C   0  0  0  0  0  0  0  0  0  0  0  0
   -0.5548    1.1540   -0.8347 O   0  0  0  0  0  0  0  0  0  0  0  0
   -1.4208    0.2097   -0.2013 C   0  0  0  0  0  0  0  0  0  0  0  0
   -0.7598   -1.1633   -0.0916 C   0  0  0  0  0  0  0  0  0  0  0  0
    0.5458   -1.1174    0.5777 N   0  0  0  0  0  0  0  0  0  0  0  0
    2.3093    0.0287    0.5851 H   0  0  0  0  0  0  0  0  0  0  0  0
    1.6855   -0.4059   -1.0200 H   0  0  0  0  0  0  0  0  0  0  0  0
    0.4841    1.6824    0.8909 H   0  0  0  0  0  0  0  0  0  0  0  0
    1.2812    2.0074   -0.6802 H   0  0  0  0  0  0  0  0  0  0  0  0
   -1.6940    0.5769    0.8101 H   0  0  0  0  0  0  0  0  0  0  0  0
   -2.3325    0.1731   -0.8142 H   0  0  0  0  0  0  0  0  0  0  0  0
   -0.6046   -1.5682   -1.1050 H   0  0  0  0  0  0  0  0  0  0  0  0
   -1.4167   -1.8626    0.4469 H   0  0  0  0  0  0  0  0  0  0  0  0
    0.4079   -0.9184    1.5716 H   0  0  0  0  0  0  0  0  0  0  0  0
  1  6  1  0  0  0  0
  1  7  1  0  0  0  0
  2  1  1  0  0  0  0
  2  9  1  0  0  0  0
  3  4  1  0  0  0  0
  3  2  1  0  0  0  0
  4  5  1  0  0  0  0
  4 11  1  0  0  0  0
  5 14  1  0  0  0  0
  5  6  1  0  0  0  0
  6 15  1  0  0  0  0
  8  1  1  0  0  0  0
 10  2  1  0  0  0  0
 12  4  1  0  0  0  0
 13  5  1  0  0  0  0
M  END
>  <Charge>
0.0

>  <InChI>
1/C4H9NO/c1-3-6-4-2-5-1/h5H,1-4H2

>  <Molecular Formula>
C_{4}H_{9}NO

>  <Name>
MORPHOLINE

>  <SMILES>
C1COCCN1

>  <logK (1,4-DIOXANE)>
4.19

>  <mean polarizability>
9.52

>  <dipole moment>
1.1784763734

$$$$
457
 OpenBabel08101817183D

  5  4  0  0  0  0  0  0  0  0999 V2000
    0.0023    0.0034    0.0677 C   0  0  0  0  0  0  0  0  0  0  0  0
    0.0489    0.0710    1.4162 F   0  0  0  0  0  0  0  0  0  0  0  0
   -1.2570   -1.1642   -0.3947 Cl  0  0  0  0  0  0  0  0  0  0  0  0
    1.5922   -0.5298   -0.5249 Cl  0  0  0  0  0  0  0  0  0  0  0  0
   -0.3865    1.6198   -0.5643 Cl  0  0  0  0  0  0  0  0  0  0  0  0
  1  2  1  0  0  0  0
  3  1  1  0  0  0  0
  4  1  1  0  0  0  0
  5  1  1  0  0  0  0
M  END
>  <Charge>
0.0

>  <InChI>
1/CCl3F/c2-1(3,4)5

>  <Molecular Formula>
CCl_{3}F

>  <Name>
FLUOROTRICHLOROMETHANE

>  <SMILES>
C(F)(Cl)(Cl)Cl

>  <logK (5,8,11,14-TETRAOXAOCTADECANE)>
2.076

>  <logK (CHLOROFORM)>
2.07

>  <logK (DIETHYLENE GLYCOL DIBUTYL ETHER)>
2.113

>  <logK (DIMETHYLFORMAMIDE)>
1.85

>  <logK (N-METHYLPYRROLIDONE)>
1.88

>  <logK (TETRAETHYLENE GLYCOL DIMETHYL ETHER)>
1.916

>  <mean polarizability>
8.73

>  <dipole moment>
0.35279917111

$$$$
458
 OpenBabel08101817183D

 16 16  0  0  0  0  0  0  0  0999 V2000
    2.8352    0.2887    0.4231 C   0  0  0  0  0  0  0  0  0  0  0  0
    1.8054   -0.5655    0.3264 C   0  0  0  0  0  0  0  0  0  0  0  0
    0.3950   -0.2430    0.0799 C   0  0  0  0  0  0  0  0  0  0  0  0
   -0.5376   -1.2925   -0.0004 C   0  0  0  0  0  0  0  0  0  0  0  0
   -1.8900   -1.0437   -0.2317 C   0  0  0  0  0  0  0  0  0  0  0  0
   -2.3416    0.2670   -0.3881 C   0  0  0  0  0  0  0  0  0  0  0  0
   -1.4276    1.3234   -0.3113 C   0  0  0  0  0  0  0  0  0  0  0  0
   -0.0786    1.0730   -0.0806 C   0  0  0  0  0  0  0  0  0  0  0  0
    3.8445   -0.0740    0.6106 H   0  0  0  0  0  0  0  0  0  0  0  0
    2.7169    1.3677    0.3201 H   0  0  0  0  0  0  0  0  0  0  0  0
    2.0119   -1.6340    0.4407 H   0  0  0  0  0  0  0  0  0  0  0  0
   -0.1880   -2.3193    0.1220 H   0  0  0  0  0  0  0  0  0  0  0  0
   -2.5922   -1.8757   -0.2890 H   0  0  0  0  0  0  0  0  0  0  0  0
   -3.3980    0.4666   -0.5673 H   0  0  0  0  0  0  0  0  0  0  0  0
   -1.7726    2.3508   -0.4315 H   0  0  0  0  0  0  0  0  0  0  0  0
    0.6168    1.9106   -0.0229 H   0  0  0  0  0  0  0  0  0  0  0  0
  1  9  1  0  0  0  0
  2  1  2  0  0  0  0
  2 11  1  0  0  0  0
  3  2  1  0  0  0  0
  4  3  1  0  0  0  0
  4 12  1  0  0  0  0
  5  4  2  0  0  0  0
  6  7  2  0  0  0  0
  6  5  1  0  0  0  0
  7  8  1  0  0  0  0
  8 16  1  0  0  0  0
  8  3  2  0  0  0  0
 10  1  1  0  0  0  0
 13  5  1  0  0  0  0
 14  6  1  0  0  0  0
 15  7  1  0  0  0  0
M  END
>  <Charge>
0.0

>  <InChI>
1/C8H8/c1-2-8-6-4-3-5-7-8/h2-7H,1H2

>  <Molecular Formula>
C_{8}H_{8}

>  <Name>
STYRENE

>  <SMILES>
C=Cc1ccccc1

>  <logK (5,8,11,14-TETRAOXAOCTADECANE)>
4.332

>  <logK (DIETHYLENE GLYCOL DIBUTYL ETHER)>
4.323

>  <logK (TETRAETHYLENE GLYCOL DIMETHYL ETHER)>
4.293

>  <mean polarizability>
14.84

>  <dipole moment>
0.213962060337

$$$$
459
 OpenBabel08101817183D

 12 11  0  0  0  0  0  0  0  0999 V2000
    2.0501    0.1397    0.4569 C   0  0  0  0  0  0  0  0  0  0  0  0
    0.6100    0.1182    0.4874 O   0  0  0  0  0  0  0  0  0  0  0  0
    0.0209   -0.1541   -0.7078 C   0  0  0  0  0  0  0  0  0  0  0  0
    0.6456   -0.3654   -1.7321 O   0  0  0  0  0  0  0  0  0  0  0  0
   -1.4596   -0.1670   -0.6345 C   0  0  0  0  0  0  0  0  0  0  0  0
   -2.1783    0.0601    0.4696 C   0  0  0  0  0  0  0  0  0  0  0  0
    2.4096    0.9081   -0.2387 H   0  0  0  0  0  0  0  0  0  0  0  0
    2.4436   -0.8347    0.1416 H   0  0  0  0  0  0  0  0  0  0  0  0
    2.3611    0.3689    1.4800 H   0  0  0  0  0  0  0  0  0  0  0  0
   -1.9353   -0.3850   -1.5909 H   0  0  0  0  0  0  0  0  0  0  0  0
   -1.7005    0.2777    1.4238 H   0  0  0  0  0  0  0  0  0  0  0  0
   -3.2674    0.0334    0.4446 H   0  0  0  0  0  0  0  0  0  0  0  0
  1  2  1  0  0  0  0
  1  9  1  0  0  0  0
  3  5  1  0  0  0  0
  3  2  1  0  0  0  0
  4  3  2  0  0  0  0
  5  6  2  0  0  0  0
  6 11  1  0  0  0  0
  7  1  1  0  0  0  0
  8  1  1  0  0  0  0
 10  5  1  0  0  0  0
 12  6  1  0  0  0  0
M  END
>  <Charge>
0.0

>  <InChI>
1/C4H6O2/c1-3-4(5)6-2/h3H,1H2,2H3

>  <Molecular Formula>
C_{4}H_{6}O_{2}

>  <Name>
METHYL ACRYLATE

>  <SMILES>
COC(=O)C=C

>  <logK (5,8,11,14-TETRAOXAOCTADECANE)>
2.997

>  <logK (DIETHYLENE GLYCOL DIBUTYL ETHER)>
2.965

>  <logK (TETRAETHYLENE GLYCOL DIMETHYL ETHER)>
3.088

>  <mean polarizability>
8.91

>  <dipole moment>
2.17471447242

$$$$
460
 OpenBabel08101817183D

  9  9  0  0  0  0  0  0  0  0999 V2000
   -0.7103    0.7444    0.0089 C   0  0  0  0  0  0  0  0  0  0  0  0
    0.7221    0.7327   -0.0202 C   0  0  0  0  0  0  0  0  0  0  0  0
    1.0921   -0.5799   -0.0180 C   0  0  0  0  0  0  0  0  0  0  0  0
   -0.0111   -1.3879    0.0106 O   0  0  0  0  0  0  0  0  0  0  0  0
   -1.1013   -0.5619    0.0267 C   0  0  0  0  0  0  0  0  0  0  0  0
   -1.3621    1.6107    0.0158 H   0  0  0  0  0  0  0  0  0  0  0  0
    1.3877    1.5882   -0.0402 H   0  0  0  0  0  0  0  0  0  0  0  0
    2.0471   -1.0901   -0.0337 H   0  0  0  0  0  0  0  0  0  0  0  0
   -2.0643   -1.0564    0.0501 H   0  0  0  0  0  0  0  0  0  0  0  0
  1  6  1  0  0  0  0
  1  5  2  0  0  0  0
  2  3  2  0  0  0  0
  2  1  1  0  0  0  0
  3  4  1  0  0  0  0
  4  5  1  0  0  0  0
  5  9  1  0  0  0  0
  7  2  1  0  0  0  0
  8  3  1  0  0  0  0
M  END
>  <Charge>
0.0

>  <InChI>
1/C4H4O/c1-2-4-5-3-1/h1-4H

>  <Molecular Formula>
C_{4}H_{4}O

>  <Name>
FURAN

>  <SMILES>
c1ccoc1

>  <logK (5,8,11,14-TETRAOXAOCTADECANE)>
2.399

>  <logK (DIETHYLENE GLYCOL DIBUTYL ETHER)>
2.378

>  <logK (N,N-DIBUTYLFORMAMID)>
2.4

>  <logK (N,N-DIMETHYLACETAMIDE)>
2.73

>  <logK (N-METHYLACETAMIDE)>
2.37

>  <logK (TETRAETHYLENE GLYCOL DIMETHYL ETHER)>
2.491

>  <mean polarizability>
7.08

>  <dipole moment>
0.589142976393

$$$$
461
 OpenBabel08101817183D

  8  7  0  0  0  0  0  0  0  0999 V2000
    0.7891    0.0938    0.0604 C   0  0  0  0  0  0  0  0  0  0  0  0
   -0.7251   -0.0384   -0.0673 C   0  0  0  0  0  0  0  0  0  0  0  0
   -1.3013   -0.4141    1.0962 F   0  0  0  0  0  0  0  0  0  0  0  0
   -1.0778   -0.9384   -1.0120 F   0  0  0  0  0  0  0  0  0  0  0  0
   -1.2416    1.1686   -0.4222 F   0  0  0  0  0  0  0  0  0  0  0  0
    1.3425   -1.1221    0.4212 F   0  0  0  0  0  0  0  0  0  0  0  0
    1.0148    0.8418    0.8332 H   0  0  0  0  0  0  0  0  0  0  0  0
    1.1994    0.4087   -0.9093 H   0  0  0  0  0  0  0  0  0  0  0  0
  1  6  1  0  0  0  0
  1  7  1  0  0  0  0
  2  1  1  0  0  0  0
  2  3  1  0  0  0  0
  4  2  1  0  0  0  0
  5  2  1  0  0  0  0
  8  1  1  0  0  0  0
M  END
>  <Charge>
0.0

>  <InChI>
1/C2H2F4/c3-1-2(4,5)6/h1H2

>  <Molecular Formula>
C_{2}H_{2}F_{4}

>  <Name>
1,1,1,2-TETRAFLUOROETHANE

>  <SMILES>
C(C(F)(F)F)F

>  <logK (DIMETHYLFORMAMIDE)>
1.62

>  <logK (N-METHYLPYRROLIDONE)>
1.44

>  <logK (TETRAETHYLENE GLYCOL DIMETHYL ETHER)>
1.508

>  <mean polarizability>
4.77

>  <dipole moment>
1.9523496703

$$$$
462
 OpenBabel08101817183D

 22 21  0  0  0  0  0  0  0  0999 V2000
   -3.7708   -0.1146   -0.1881 C   0  0  0  0  0  0  0  0  0  0  0  0
   -2.4492   -0.2348   -0.3387 C   0  0  0  0  0  0  0  0  0  0  0  0
   -1.5109   -0.7626    0.7054 C   0  0  0  0  0  0  0  0  0  0  0  0
   -0.4658    0.2622    1.1936 C   0  0  0  0  0  0  0  0  0  0  0  0
    0.5265    0.7653    0.1369 C   0  0  0  0  0  0  0  0  0  0  0  0
    1.4652   -0.3211   -0.4166 C   0  0  0  0  0  0  0  0  0  0  0  0
    2.4351    0.2106   -1.4279 C   0  0  0  0  0  0  0  0  0  0  0  0
    3.7650    0.1848   -1.3116 C   0  0  0  0  0  0  0  0  0  0  0  0
   -4.4054    0.2781   -0.9826 H   0  0  0  0  0  0  0  0  0  0  0  0
   -4.2665   -0.4117    0.7386 H   0  0  0  0  0  0  0  0  0  0  0  0
   -2.0028    0.0719   -1.2902 H   0  0  0  0  0  0  0  0  0  0  0  0
   -0.9882   -1.6495    0.3084 H   0  0  0  0  0  0  0  0  0  0  0  0
   -2.0952   -1.1119    1.5700 H   0  0  0  0  0  0  0  0  0  0  0  0
    0.0996   -0.1910    2.0242 H   0  0  0  0  0  0  0  0  0  0  0  0
   -0.9995    1.1263    1.6182 H   0  0  0  0  0  0  0  0  0  0  0  0
    1.1420    1.5609    0.5836 H   0  0  0  0  0  0  0  0  0  0  0  0
   -0.0154    1.2396   -0.6969 H   0  0  0  0  0  0  0  0  0  0  0  0
    2.0156   -0.7921    0.4136 H   0  0  0  0  0  0  0  0  0  0  0  0
    0.8623   -1.1170   -0.8863 H   0  0  0  0  0  0  0  0  0  0  0  0
    1.9920    0.6634   -2.3218 H   0  0  0  0  0  0  0  0  0  0  0  0
    4.2505   -0.2540   -0.4373 H   0  0  0  0  0  0  0  0  0  0  0  0
    4.4158    0.5972   -2.0824 H   0  0  0  0  0  0  0  0  0  0  0  0
  1 10  1  0  0  0  0
  2  1  2  0  0  0  0
  2  3  1  0  0  0  0
  3  4  1  0  0  0  0
  3 13  1  0  0  0  0
  4 15  1  0  0  0  0
  4 14  1  0  0  0  0
  5 16  1  0  0  0  0
  5  4  1  0  0  0  0
  6  5  1  0  0  0  0
  6 18  1  0  0  0  0
  7  8  2  0  0  0  0
  7  6  1  0  0  0  0
  8 21  1  0  0  0  0
  9  1  1  0  0  0  0
 11  2  1  0  0  0  0
 12  3  1  0  0  0  0
 17  5  1  0  0  0  0
 19  6  1  0  0  0  0
 20  7  1  0  0  0  0
 22  8  1  0  0  0  0
M  END
>  <Charge>
0.0

>  <InChI>
1/C8H14/c1-3-5-7-8-6-4-2/h3-4H,1-2,5-8H2

>  <Molecular Formula>
C_{8}H_{14}

>  <Name>
1,7-OCTADIENE

>  <SMILES>
C=CCCCCC=C

>  <logK (2-BUTOXYETHANOL)>
3.44

>  <logK (2-ETHOXYETHANOL)>
3.2

>  <logK (2-PROPOXYETHANOL)>
3.31638889025

>  <logK (METHOXYETHANOL)>
2.999

>  <mean polarizability>
15.54

>  <dipole moment>
0.347746643875

$$$$
463
 OpenBabel08101817183D

 20 20  0  0  1  0  0  0  0  0999 V2000
    2.9461   -0.5317   -0.6580 C   0  0  0  0  0  0  0  0  0  0  0  0
    1.9803   -0.2254    0.2118 C   0  0  0  0  0  0  0  0  0  0  0  0
    0.5276   -0.0597   -0.1212 C   0  0  1  0  0  0  0  0  0  0  0  0
   -0.3537   -1.0558    0.6577 C   0  0  0  0  0  0  0  0  0  0  0  0
   -1.8240   -0.9487    0.2386 C   0  0  0  0  0  0  0  0  0  0  0  0
   -2.2847    0.4787    0.1372 C   0  0  0  0  0  0  0  0  0  0  0  0
   -1.4438    1.5201    0.1230 C   0  0  0  0  0  0  0  0  0  0  0  0
    0.0528    1.3808    0.1614 C   0  0  0  0  0  0  0  0  0  0  0  0
    3.9858   -0.6370   -0.3484 H   0  0  0  0  0  0  0  0  0  0  0  0
    2.7286   -0.6878   -1.7168 H   0  0  0  0  0  0  0  0  0  0  0  0
    2.2417   -0.0743    1.2661 H   0  0  0  0  0  0  0  0  0  0  0  0
    0.3925   -0.2574   -1.1988 H   0  0  0  0  0  0  0  0  0  0  0  0
    0.0155   -2.0802    0.5067 H   0  0  0  0  0  0  0  0  0  0  0  0
   -0.2627   -0.8403    1.7354 H   0  0  0  0  0  0  0  0  0  0  0  0
   -2.4600   -1.4928    0.9553 H   0  0  0  0  0  0  0  0  0  0  0  0
   -1.9806   -1.4564   -0.7303 H   0  0  0  0  0  0  0  0  0  0  0  0
   -3.3612    0.6564    0.0788 H   0  0  0  0  0  0  0  0  0  0  0  0
   -1.8460    2.5350    0.0718 H   0  0  0  0  0  0  0  0  0  0  0  0
    0.4330    1.7100    1.1461 H   0  0  0  0  0  0  0  0  0  0  0  0
    0.5124    2.0665   -0.5678 H   0  0  0  0  0  0  0  0  0  0  0  0
  1  9  1  0  0  0  0
  1  2  2  0  0  0  0
  2 11  1  0  0  0  0
  3 12  1  6  0  0  0
  3  8  1  0  0  0  0
  3  2  1  0  0  0  0
  3  4  1  0  0  0  0
  4 14  1  0  0  0  0
  5  4  1  0  0  0  0
  5 15  1  0  0  0  0
  6  5  1  0  0  0  0
  7  6  2  0  0  0  0
  7  8  1  0  0  0  0
  8 19  1  0  0  0  0
 10  1  1  0  0  0  0
 13  4  1  0  0  0  0
 16  5  1  0  0  0  0
 17  6  1  0  0  0  0
 18  7  1  0  0  0  0
 20  8  1  0  0  0  0
M  END
>  <Charge>
0.0

>  <InChI>
1/C8H12/c1-2-8-6-4-3-5-7-8/h2-4,8H,1,5-7H2

>  <Molecular Formula>
C_{8}H_{12}

>  <Name>
4-VINYLCYCLOHEXENE

>  <SMILES>
C=CC1CCC=CC1

>  <logK (2-ETHOXYETHANOL)>
3.431

>  <logK (METHOXYETHANOL)>
3.246

>  <mean polarizability>
14.47

>  <dipole moment>
0.279542457834

$$$$
464
 OpenBabel08101817183D

 13 12  0  0  0  0  0  0  0  0999 V2000
    2.0804    0.1300   -0.0622 C   0  0  0  0  0  0  0  0  0  0  0  0
    0.7678   -0.3514   -0.2921 O   0  0  0  0  0  0  0  0  0  0  0  0
   -0.1475    0.0842    0.6994 C   0  0  0  0  0  0  0  0  0  0  0  0
   -1.5195   -0.4949    0.3713 C   0  0  0  0  0  0  0  0  0  0  0  0
   -2.4999   -0.1148    1.3379 O   0  0  0  0  0  0  0  0  0  0  0  0
    2.4757   -0.2180    0.9098 H   0  0  0  0  0  0  0  0  0  0  0  0
    2.7150   -0.2595   -0.8666 H   0  0  0  0  0  0  0  0  0  0  0  0
    2.1154    1.2351   -0.0786 H   0  0  0  0  0  0  0  0  0  0  0  0
   -0.1991    1.1936    0.7189 H   0  0  0  0  0  0  0  0  0  0  0  0
    0.1688   -0.2497    1.7063 H   0  0  0  0  0  0  0  0  0  0  0  0
   -1.4727   -1.5915    0.3976 H   0  0  0  0  0  0  0  0  0  0  0  0
   -1.8134   -0.1968   -0.6496 H   0  0  0  0  0  0  0  0  0  0  0  0
   -2.6710    0.8339    1.2350 H   0  0  0  0  0  0  0  0  0  0  0  0
  1  6  1  0  0  0  0
  2  1  1  0  0  0  0
  2  3  1  0  0  0  0
  3  9  1  0  0  0  0
  3 10  1  0  0  0  0
  4 11  1  0  0  0  0
  4  3  1  0  0  0  0
  4  5  1  0  0  0  0
  7  1  1  0  0  0  0
  8  1  1  0  0  0  0
 12  4  1  0  0  0  0
 13  5  1  0  0  0  0
M  END
>  <Charge>
0.0

>  <InChI>
1/C3H8O2/c1-5-3-2-4/h4H,2-3H2,1H3

>  <Molecular Formula>
C_{3}H_{8}O_{2}

>  <Name>
METHOXYETHANOL

>  <SMILES>
COCCO

>  <logK (METHOXYETHANOL)>
4.371

>  <logK (METHYL ACETATE)>
4.005

>  <mean polarizability>
7.81

>  <dipole moment>
1.89982940438

>  <Formula>
C3H8O2

$$$$
465
 OpenBabel08101817183D

 24 24  0  0  0  0  0  0  0  0999 V2000
    3.8604    0.1037   -0.2850 C   0  0  0  0  0  0  0  0  0  0  0  0
    2.3613    0.1072   -0.1357 C   0  0  0  0  0  0  0  0  0  0  0  0
    1.7427    0.7754    0.9293 C   0  0  0  0  0  0  0  0  0  0  0  0
    0.3549    0.7789    1.0678 C   0  0  0  0  0  0  0  0  0  0  0  0
   -0.4726    0.1171    0.1509 C   0  0  0  0  0  0  0  0  0  0  0  0
    0.1470   -0.5508   -0.9136 C   0  0  0  0  0  0  0  0  0  0  0  0
    1.5354   -0.5548   -1.0528 C   0  0  0  0  0  0  0  0  0  0  0  0
   -1.9827    0.1306    0.3157 C   0  0  0  0  0  0  0  0  0  0  0  0
   -2.5490   -1.2814    0.5345 C   0  0  0  0  0  0  0  0  0  0  0  0
   -2.6824    0.8246   -0.8638 C   0  0  0  0  0  0  0  0  0  0  0  0
    4.2556    1.1250   -0.3852 H   0  0  0  0  0  0  0  0  0  0  0  0
    4.3494   -0.3452    0.5918 H   0  0  0  0  0  0  0  0  0  0  0  0
    4.1724   -0.4646   -1.1701 H   0  0  0  0  0  0  0  0  0  0  0  0
    2.3564    1.3020    1.6632 H   0  0  0  0  0  0  0  0  0  0  0  0
   -0.0992    1.3084    1.9082 H   0  0  0  0  0  0  0  0  0  0  0  0
   -0.4594   -1.0795   -1.6513 H   0  0  0  0  0  0  0  0  0  0  0  0
    1.9888   -1.0843   -1.8932 H   0  0  0  0  0  0  0  0  0  0  0  0
   -2.1970    0.7194    1.2229 H   0  0  0  0  0  0  0  0  0  0  0  0
   -2.3817   -1.9161   -0.3475 H   0  0  0  0  0  0  0  0  0  0  0  0
   -3.6327   -1.2409    0.7151 H   0  0  0  0  0  0  0  0  0  0  0  0
   -2.0755   -1.7726    1.3949 H   0  0  0  0  0  0  0  0  0  0  0  0
   -2.3045    1.8455   -1.0076 H   0  0  0  0  0  0  0  0  0  0  0  0
   -2.5204    0.2723   -1.8005 H   0  0  0  0  0  0  0  0  0  0  0  0
   -3.7670    0.8800   -0.6931 H   0  0  0  0  0  0  0  0  0  0  0  0
  1  2  1  0  0  0  0
  1 12  1  0  0  0  0
  2  3  2  0  0  0  0
  3  4  1  0  0  0  0
  3 14  1  0  0  0  0
  4 15  1  0  0  0  0
  5  8  1  0  0  0  0
  5  4  2  0  0  0  0
  6  5  1  0  0  0  0
  7  6  2  0  0  0  0
  7  2  1  0  0  0  0
  8  9  1  0  0  0  0
  8 18  1  0  0  0  0
  9 20  1  0  0  0  0
  9 21  1  0  0  0  0
 10 24  1  0  0  0  0
 10  8  1  0  0  0  0
 11  1  1  0  0  0  0
 13  1  1  0  0  0  0
 16  6  1  0  0  0  0
 17  7  1  0  0  0  0
 19  9  1  0  0  0  0
 22 10  1  0  0  0  0
 23 10  1  0  0  0  0
M  END
>  <Charge>
0.0

>  <InChI>
1/C10H14/c1-8(2)10-6-4-9(3)5-7-10/h4-8H,1-3H3

>  <Molecular Formula>
C_{10}H_{14}

>  <Name>
P-CYMENE

>  <SMILES>
Cc1ccc(cc1)C(C)C

>  <logK (2-BUTOXYETHANOL)>
4.64

>  <logK (2-ETHOXYETHANOL)>
4.383

>  <logK (METHOXYETHANOL)>
4.213

>  <dipole moment>
0.0888034167658

>  <mean polarizability>
18.39

$$$$
466
 OpenBabel08101817183D

  9  8  0  0  0  0  0  0  0  0999 V2000
   -1.3207   -0.1162   -0.1776 C   0  0  0  0  0  0  0  0  0  0  0  0
    0.0887   -0.4734   -0.2946 N   0  0  0  0  0  0  0  0  0  0  0  0
    0.9496    0.2762    0.2501 C   0  0  0  0  0  0  0  0  0  0  0  0
    2.2780    0.0166    0.1893 O   0  0  0  0  0  0  0  0  0  0  0  0
   -1.9249   -0.8652   -0.7021 H   0  0  0  0  0  0  0  0  0  0  0  0
   -1.5387    0.8645   -0.6298 H   0  0  0  0  0  0  0  0  0  0  0  0
   -1.6564   -0.0920    0.8715 H   0  0  0  0  0  0  0  0  0  0  0  0
    0.7612    1.1976    0.8226 H   0  0  0  0  0  0  0  0  0  0  0  0
    2.3632   -0.8082   -0.3293 H   0  0  0  0  0  0  0  0  0  0  0  0
  1  7  1  0  0  0  0
  2  1  1  0  0  0  0
  2  3  2  0  0  0  0
  3  8  1  0  0  0  0
  4  3  1  0  0  0  0
  5  1  1  0  0  0  0
  6  1  1  0  0  0  0
  9  4  1  0  0  0  0
M  END
>  <Charge>
0.0

>  <InChI>
1/C2H5NO/c1-3-2-4/h2H,1H3,(H,3,4)

>  <Molecular Formula>
C_{2}H_{5}NO

>  <Name>
N-METHYLFORMAMIDE

>  <SMILES>
C/N=C/O

>  <logK (ACETONE)>
5.39

>  <logK (N-METHYLFORMAMIDE)>
6.04

>  <mean polarizability>
6.3

>  <dipole moment>
0.846322104625

>  <Formula>
C2H5NO

$$$$
467
 OpenBabel08101817183D

 19 19  0  0  0  0  0  0  0  0999 V2000
   -2.1878   -1.2178   -0.1869 C   0  0  0  0  0  0  0  0  0  0  0  0
   -1.4643   -0.0231    0.3814 C   0  0  0  0  0  0  0  0  0  0  0  0
   -2.1350    0.9111    1.0790 C   0  0  0  0  0  0  0  0  0  0  0  0
   -0.0058    0.0864    0.1273 C   0  0  0  0  0  0  0  0  0  0  0  0
    0.8386    0.7906    1.0066 C   0  0  0  0  0  0  0  0  0  0  0  0
    2.2038    0.9063    0.7591 C   0  0  0  0  0  0  0  0  0  0  0  0
    2.7684    0.3139   -0.3737 C   0  0  0  0  0  0  0  0  0  0  0  0
    1.9508   -0.4011   -1.2489 C   0  0  0  0  0  0  0  0  0  0  0  0
    0.5834   -0.5195   -0.9973 C   0  0  0  0  0  0  0  0  0  0  0  0
   -1.6967   -2.1589    0.1003 H   0  0  0  0  0  0  0  0  0  0  0  0
   -2.2068   -1.1920   -1.2870 H   0  0  0  0  0  0  0  0  0  0  0  0
   -3.2272   -1.2441    0.1600 H   0  0  0  0  0  0  0  0  0  0  0  0
   -1.6529    1.8114    1.4582 H   0  0  0  0  0  0  0  0  0  0  0  0
   -3.2024    0.8069    1.2724 H   0  0  0  0  0  0  0  0  0  0  0  0
    0.4189    1.2312    1.9108 H   0  0  0  0  0  0  0  0  0  0  0  0
    2.8350    1.4511    1.4619 H   0  0  0  0  0  0  0  0  0  0  0  0
    3.8380    0.4002   -0.5652 H   0  0  0  0  0  0  0  0  0  0  0  0
    2.3778   -0.8725   -2.1347 H   0  0  0  0  0  0  0  0  0  0  0  0
   -0.0355   -1.0802   -1.6971 H   0  0  0  0  0  0  0  0  0  0  0  0
  1 10  1  0  0  0  0
  1 12  1  0  0  0  0
  1  2  1  0  0  0  0
  2  3  2  0  0  0  0
  3 14  1  0  0  0  0
  3 13  1  0  0  0  0
  4  2  1  0  0  0  0
  4  5  2  0  0  0  0
  5 15  1  0  0  0  0
  6  5  1  0  0  0  0
  6 16  1  0  0  0  0
  7  6  2  0  0  0  0
  8  9  2  0  0  0  0
  8  7  1  0  0  0  0
  9  4  1  0  0  0  0
 11  1  1  0  0  0  0
 17  7  1  0  0  0  0
 18  8  1  0  0  0  0
 19  9  1  0  0  0  0
M  END
>  <Charge>
0.0

>  <InChI>
1/C9H10/c1-8(2)9-6-4-3-5-7-9/h3-7H,1H2,2H3

>  <Molecular Formula>
C_{9}H_{10}

>  <Name>
ALPHA-METHYLSTYRENE

>  <SMILES>
CC(=C)c1ccccc1

>  <logK (ACETONE)>
4.67

>  <mean polarizability>
16.48

>  <dipole moment>
0.355625127488

$$$$
468
 OpenBabel08101817183D

 24 23  0  0  0  0  0  0  0  0999 V2000
    2.7892    0.8355    0.3465 C   0  0  0  0  0  0  0  0  0  0  0  0
    1.5148    0.0888    0.0436 C   0  0  0  0  0  0  0  0  0  0  0  0
    0.3227    0.6706    0.2694 C   0  0  0  0  0  0  0  0  0  0  0  0
   -1.0993    0.1551    0.0564 C   0  0  0  0  0  0  0  0  0  0  0  0
   -1.3853   -1.0915    0.9204 C   0  0  0  0  0  0  0  0  0  0  0  0
   -2.0725    1.2675    0.4941 C   0  0  0  0  0  0  0  0  0  0  0  0
   -1.3741   -0.1543   -1.4308 C   0  0  0  0  0  0  0  0  0  0  0  0
    1.7446   -1.2937   -0.5057 C   0  0  0  0  0  0  0  0  0  0  0  0
    3.4081    0.9429   -0.5591 H   0  0  0  0  0  0  0  0  0  0  0  0
    2.5921    1.8372    0.7475 H   0  0  0  0  0  0  0  0  0  0  0  0
    3.4048    0.2868    1.0778 H   0  0  0  0  0  0  0  0  0  0  0  0
    0.3671    1.6876    0.6750 H   0  0  0  0  0  0  0  0  0  0  0  0
   -0.7412   -1.9384    0.6555 H   0  0  0  0  0  0  0  0  0  0  0  0
   -2.4307   -1.4112    0.7949 H   0  0  0  0  0  0  0  0  0  0  0  0
   -1.2232   -0.8703    1.9844 H   0  0  0  0  0  0  0  0  0  0  0  0
   -1.9314    1.5199    1.5549 H   0  0  0  0  0  0  0  0  0  0  0  0
   -1.9155    2.1824   -0.0952 H   0  0  0  0  0  0  0  0  0  0  0  0
   -3.1155    0.9499    0.3565 H   0  0  0  0  0  0  0  0  0  0  0  0
   -1.1874    0.7324   -2.0521 H   0  0  0  0  0  0  0  0  0  0  0  0
   -2.4244   -0.4517   -1.5698 H   0  0  0  0  0  0  0  0  0  0  0  0
   -0.7431   -0.9665   -1.8117 H   0  0  0  0  0  0  0  0  0  0  0  0
    2.3201   -1.8998    0.2127 H   0  0  0  0  0  0  0  0  0  0  0  0
    2.3544   -1.2431   -1.4221 H   0  0  0  0  0  0  0  0  0  0  0  0
    0.8258   -1.8359   -0.7433 H   0  0  0  0  0  0  0  0  0  0  0  0
  1 10  1  0  0  0  0
  1 11  1  0  0  0  0
  2  3  2  0  0  0  0
  2  1  1  0  0  0  0
  3 12  1  0  0  0  0
  4  3  1  0  0  0  0
  4  6  1  0  0  0  0
  4  5  1  0  0  0  0
  5 15  1  0  0  0  0
  6 16  1  0  0  0  0
  7  4  1  0  0  0  0
  8  2  1  0  0  0  0
  8 22  1  0  0  0  0
  9  1  1  0  0  0  0
 13  5  1  0  0  0  0
 14  5  1  0  0  0  0
 17  6  1  0  0  0  0
 18  6  1  0  0  0  0
 19  7  1  0  0  0  0
 20  7  1  0  0  0  0
 21  7  1  0  0  0  0
 23  8  1  0  0  0  0
 24  8  1  0  0  0  0
M  END
>  <Charge>
0.0

>  <InChI>
1/C8H16/c1-7(2)6-8(3,4)5/h6H,1-5H3

>  <Molecular Formula>
C_{8}H_{16}

>  <Name>
2,2,4-TRIMETHYL-3-PENTENE

>  <SMILES>
CC(=CC(C)(C)C)C

>  <logK (BUTANONE)>
3.22

>  <mean polarizability>
15.67

>  <dipole moment>
0.392686439334

$$$$
469
 OpenBabel08101817183D

 14 14  0  0  0  0  0  0  0  0999 V2000
    1.4798    0.1921    0.1266 C   0  0  0  0  0  0  0  0  0  0  0  0
    0.5188    1.3127   -0.1474 C   0  0  0  0  0  0  0  0  0  0  0  0
   -0.8024    1.1412   -0.2605 C   0  0  0  0  0  0  0  0  0  0  0  0
   -1.4798   -0.1921   -0.1266 C   0  0  0  0  0  0  0  0  0  0  0  0
   -0.5188   -1.3127    0.1474 C   0  0  0  0  0  0  0  0  0  0  0  0
    0.8024   -1.1412    0.2604 C   0  0  0  0  0  0  0  0  0  0  0  0
    2.2441    0.1476   -0.6722 H   0  0  0  0  0  0  0  0  0  0  0  0
    2.0632    0.4114    1.0409 H   0  0  0  0  0  0  0  0  0  0  0  0
    0.9422    2.3140   -0.2569 H   0  0  0  0  0  0  0  0  0  0  0  0
   -1.4413    2.0046   -0.4609 H   0  0  0  0  0  0  0  0  0  0  0  0
   -2.2441   -0.1476    0.6721 H   0  0  0  0  0  0  0  0  0  0  0  0
   -2.0632   -0.4114   -1.0409 H   0  0  0  0  0  0  0  0  0  0  0  0
   -0.9422   -2.3140    0.2569 H   0  0  0  0  0  0  0  0  0  0  0  0
    1.4413   -2.0046    0.4609 H   0  0  0  0  0  0  0  0  0  0  0  0
  1  6  1  0  0  0  0
  1  8  1  0  0  0  0
  2  1  1  0  0  0  0
  3  2  2  0  0  0  0
  3  4  1  0  0  0  0
  4  5  1  0  0  0  0
  4 11  1  0  0  0  0
  5 13  1  0  0  0  0
  5  6  2  0  0  0  0
  6 14  1  0  0  0  0
  7  1  1  0  0  0  0
  9  2  1  0  0  0  0
 10  3  1  0  0  0  0
 12  4  1  0  0  0  0
M  END
>  <Charge>
0.0

>  <InChI>
1/C6H8/c1-2-4-6-5-3-1/h1-2,5-6H,3-4H2

>  <Molecular Formula>
C_{6}H_{8}

>  <Name>
1,4-CYCLOHEXADIENE

>  <SMILES>
C1C=CCC=C1

>  <logK (BUTANONE)>
3.23

>  <mean polarizability>
10.32

>  <dipole moment>
0.000140632930032

$$$$
470
 OpenBabel08101817183D

 19 18  0  0  0  0  0  0  0  0999 V2000
    2.2411   -0.5215    0.6397 C   0  0  0  0  0  0  0  0  0  0  0  0
    1.6828   -0.3453   -0.7722 C   0  0  0  0  0  0  0  0  0  0  0  0
    0.7666    0.8863   -0.9188 C   0  0  0  0  0  0  0  0  0  0  0  0
   -0.4667    0.8551   -0.0246 C   0  0  0  0  0  0  0  0  0  0  0  0
   -0.6164    1.6609    0.8796 O   0  0  0  0  0  0  0  0  0  0  0  0
   -1.5014   -0.2254   -0.3110 C   0  0  0  0  0  0  0  0  0  0  0  0
   -2.7416   -0.1482    0.5698 C   0  0  0  0  0  0  0  0  0  0  0  0
    2.9210   -1.3823    0.6910 H   0  0  0  0  0  0  0  0  0  0  0  0
    2.8003    0.3697    0.9569 H   0  0  0  0  0  0  0  0  0  0  0  0
    1.4424   -0.6822    1.3775 H   0  0  0  0  0  0  0  0  0  0  0  0
    1.1397   -1.2522   -1.0790 H   0  0  0  0  0  0  0  0  0  0  0  0
    2.5123   -0.2364   -1.4868 H   0  0  0  0  0  0  0  0  0  0  0  0
    0.4344    0.9622   -1.9671 H   0  0  0  0  0  0  0  0  0  0  0  0
    1.3226    1.8010   -0.6714 H   0  0  0  0  0  0  0  0  0  0  0  0
   -1.7605   -0.1668   -1.3821 H   0  0  0  0  0  0  0  0  0  0  0  0
   -0.9994   -1.2023   -0.2018 H   0  0  0  0  0  0  0  0  0  0  0  0
   -3.4372   -0.9642    0.3357 H   0  0  0  0  0  0  0  0  0  0  0  0
   -2.4736   -0.2136    1.6316 H   0  0  0  0  0  0  0  0  0  0  0  0
   -3.2662    0.8050    0.4297 H   0  0  0  0  0  0  0  0  0  0  0  0
  1  8  1  0  0  0  0
  1  9  1  0  0  0  0
  1 10  1  0  0  0  0
  2  1  1  0  0  0  0
  3  2  1  0  0  0  0
  3 14  1  0  0  0  0
  3  4  1  0  0  0  0
  4  5  2  0  0  0  0
  6 16  1  0  0  0  0
  6  4  1  0  0  0  0
  6  7  1  0  0  0  0
  7 18  1  0  0  0  0
 11  2  1  0  0  0  0
 12  2  1  0  0  0  0
 13  3  1  0  0  0  0
 15  6  1  0  0  0  0
 17  7  1  0  0  0  0
 19  7  1  0  0  0  0
M  END
>  <Charge>
0.0

>  <InChI>
1/C6H12O/c1-3-5-6(7)4-2/h3-5H2,1-2H3

>  <Molecular Formula>
C_{6}H_{12}O

>  <Name>
3-HEXANONE

>  <SMILES>
CCCC(=O)CC

>  <logK (3-HEXANONE)>
4.035

>  <mean polarizability>
11.87

>  <dipole moment>
2.89074584802

>  <Formula>
C6H12O

$$$$
471
 OpenBabel08101817183D

 19 18  0  0  0  0  0  0  0  0999 V2000
   -3.2419   -0.6261    0.8994 C   0  0  0  0  0  0  0  0  0  0  0  0
   -2.2003   -0.3047    0.1273 C   0  0  0  0  0  0  0  0  0  0  0  0
   -1.3036    0.8779    0.3451 C   0  0  0  0  0  0  0  0  0  0  0  0
    0.1597    0.5153    0.6661 C   0  0  0  0  0  0  0  0  0  0  0  0
    0.9031   -0.1897   -0.4811 C   0  0  0  0  0  0  0  0  0  0  0  0
    2.3255   -0.5099   -0.1345 C   0  0  0  0  0  0  0  0  0  0  0  0
    3.4010   -0.0518   -0.7799 C   0  0  0  0  0  0  0  0  0  0  0  0
   -3.5193   -0.0175    1.7629 H   0  0  0  0  0  0  0  0  0  0  0  0
   -3.8573   -1.5021    0.6956 H   0  0  0  0  0  0  0  0  0  0  0  0
   -1.9697   -0.9441   -0.7308 H   0  0  0  0  0  0  0  0  0  0  0  0
   -1.7087    1.4903    1.1648 H   0  0  0  0  0  0  0  0  0  0  0  0
   -1.3134    1.5132   -0.5582 H   0  0  0  0  0  0  0  0  0  0  0  0
    0.1839   -0.1217    1.5646 H   0  0  0  0  0  0  0  0  0  0  0  0
    0.7032    1.4377    0.9223 H   0  0  0  0  0  0  0  0  0  0  0  0
    0.3765   -1.1269   -0.7289 H   0  0  0  0  0  0  0  0  0  0  0  0
    0.8741    0.4396   -1.3851 H   0  0  0  0  0  0  0  0  0  0  0  0
    2.4686   -1.1672    0.7305 H   0  0  0  0  0  0  0  0  0  0  0  0
    4.4113   -0.3191   -0.4707 H   0  0  0  0  0  0  0  0  0  0  0  0
    3.3076    0.6066   -1.6462 H   0  0  0  0  0  0  0  0  0  0  0  0
  1  8  1  0  0  0  0
  2  3  1  0  0  0  0
  2  1  2  0  0  0  0
  3  4  1  0  0  0  0
  3 11  1  0  0  0  0
  4 14  1  0  0  0  0
  4 13  1  0  0  0  0
  5  6  1  0  0  0  0
  5  4  1  0  0  0  0
  6 17  1  0  0  0  0
  7 18  1  0  0  0  0
  7  6  2  0  0  0  0
  9  1  1  0  0  0  0
 10  2  1  0  0  0  0
 12  3  1  0  0  0  0
 15  5  1  0  0  0  0
 16  5  1  0  0  0  0
 19  7  1  0  0  0  0
M  END
>  <Charge>
0.0

>  <InChI>
1/C7H12/c1-3-5-7-6-4-2/h3-4H,1-2,5-7H2

>  <Molecular Formula>
C_{7}H_{12}

>  <Name>
1,6-HEPTADIENE

>  <SMILES>
C=CCCCC=C

>  <logK (BUTYL ACETATE)>
3.24

>  <logK (ETHYL ACETATE)>
3.37

>  <mean polarizability>
13.7

>  <dipole moment>
0.228890968879

$$$$
472
 OpenBabel08101817183D

  3  2  0  0  0  0  0  0  0  0999 V2000
    1.0976   -0.1883   -0.0000 O   0  0  0  0  0  0  0  0  0  0  0  0
   -0.0116    0.4351   -0.0000 O   0  0  0  0  0  0  0  0  0  0  0  0
   -1.0859   -0.2468   -0.0000 O   0  0  0  0  0  0  0  0  0  0  0  0
  1  2  1  0  0  0  0
  2  3  1  0  0  0  0
M  RAD  2   1   2   3   2
M  END
>  <Charge>
0.0

>  <InChI>
1/O3/c1-3-2

>  <Molecular Formula>
O_{3}

>  <Name>
OZONE

>  <SMILES>
[O-][O+]=O

>  <logK (ACETIC ACID)>
0.262

>  <logK (METHYL ACETATE)>
0.212

>  <mean polarizability>
2.71

>  <dipole moment>
0.622634265952

$$$$
473
 OpenBabel08101817183D

 13 13  0  0  1  0  0  0  0  0999 V2000
    1.4829    0.5221    0.7085 C   0  0  0  0  0  0  0  0  0  0  0  0
    0.7201   -0.4651   -0.1785 C   0  0  0  0  0  0  0  0  0  0  0  0
   -0.7452   -0.5297    0.1705 C   0  0  1  0  0  0  0  0  0  0  0  0
   -1.7572    0.2699   -0.5351 C   0  0  0  0  0  0  0  0  0  0  0  0
   -1.6259   -1.1400   -0.7915 O   0  0  0  0  0  0  0  0  0  0  0  0
    1.3869    0.2611    1.7720 H   0  0  0  0  0  0  0  0  0  0  0  0
    2.5529    0.5257    0.4646 H   0  0  0  0  0  0  0  0  0  0  0  0
    1.1054    1.5462    0.5824 H   0  0  0  0  0  0  0  0  0  0  0  0
    1.1517   -1.4732   -0.0748 H   0  0  0  0  0  0  0  0  0  0  0  0
    0.8169   -0.1894   -1.2391 H   0  0  0  0  0  0  0  0  0  0  0  0
   -0.9680   -0.8157    1.2067 H   0  0  0  0  0  0  0  0  0  0  0  0
   -2.6781    0.5670   -0.0250 H   0  0  0  0  0  0  0  0  0  0  0  0
   -1.4422    0.9210   -1.3566 H   0  0  0  0  0  0  0  0  0  0  0  0
  1  6  1  0  0  0  0
  2  9  1  0  0  0  0
  2  3  1  0  0  0  0
  2  1  1  0  0  0  0
  3 11  1  1  0  0  0
  4 12  1  0  0  0  0
  4  3  1  0  0  0  0
  5  4  1  0  0  0  0
  5  3  1  0  0  0  0
  7  1  1  0  0  0  0
  8  1  1  0  0  0  0
 10  2  1  0  0  0  0
 13  4  1  0  0  0  0
M  END
>  <Charge>
0.0

>  <InChI>
1/C4H8O/c1-2-4-3-5-4/h4H,2-3H2,1H3

>  <Molecular Formula>
C_{4}H_{8}O

>  <Name>
ETHYL OXIRANE

>  <SMILES>
CCC1CO1

>  <logK (METHYL ACETATE)>
3.04

>  <mean polarizability>
8.04

>  <dipole moment>
1.92664291725

$$$$
474
 OpenBabel08101817183D

 12 11  0  0  0  0  0  0  0  0999 V2000
   -1.4351   -0.0523   -0.0768 C   0  0  0  0  0  0  0  0  0  0  0  0
    0.0310    0.0579   -0.4735 C   0  0  0  0  0  0  0  0  0  0  0  0
    0.9624   -0.5052    0.5942 C   0  0  0  0  0  0  0  0  0  0  0  0
    2.6748   -0.4100    0.0300 Cl  0  0  0  0  0  0  0  0  0  0  0  0
    0.3145    1.4134   -0.7730 O   0  0  0  0  0  0  0  0  0  0  0  0
   -1.8293    0.7306    1.4970 Cl  0  0  0  0  0  0  0  0  0  0  0  0
   -1.7303   -1.1039    0.0079 H   0  0  0  0  0  0  0  0  0  0  0  0
   -2.0514    0.4418   -0.8349 H   0  0  0  0  0  0  0  0  0  0  0  0
    0.1345   -0.5686   -1.3844 H   0  0  0  0  0  0  0  0  0  0  0  0
    0.8997    0.0772    1.5183 H   0  0  0  0  0  0  0  0  0  0  0  0
    0.7517   -1.5614    0.7968 H   0  0  0  0  0  0  0  0  0  0  0  0
    1.2774    1.4807   -0.9016 H   0  0  0  0  0  0  0  0  0  0  0  0
  1  7  1  0  0  0  0
  1  6  1  0  0  0  0
  2  1  1  0  0  0  0
  2  3  1  0  0  0  0
  3 11  1  0  0  0  0
  3 10  1  0  0  0  0
  4  3  1  0  0  0  0
  5  2  1  0  0  0  0
  8  1  1  0  0  0  0
  9  2  1  0  0  0  0
 12  5  1  0  0  0  0
M  END
>  <Charge>
0.0

>  <InChI>
1/C3H6Cl2O/c4-1-3(6)2-5/h3,6H,1-2H2

>  <Molecular Formula>
C_{3}H_{6}Cl_{2}O

>  <Name>
1,3-DICHLORO-2-PROPANOL

>  <SMILES>
C(C(CCl)O)Cl

>  <logK (BUTYL ACETATE)>
5.56

>  <logK (CHLOROBENZENE)>
4.41

>  <mean polarizability>
10.91

>  <dipole moment>
2.09305442398

$$$$
475
 OpenBabel08101817183D

 29 28  0  0  0  0  0  0  0  0999 V2000
    4.4133    1.2356    0.3949 C   0  0  0  0  0  0  0  0  0  0  0  0
    3.1253    0.5335    0.8255 C   0  0  0  0  0  0  0  0  0  0  0  0
    2.3688   -0.0914   -0.3508 C   0  0  0  0  0  0  0  0  0  0  0  0
    1.1099   -0.8787    0.0353 C   0  0  0  0  0  0  0  0  0  0  0  0
   -0.0354   -0.0181    0.5789 C   0  0  0  0  0  0  0  0  0  0  0  0
   -1.2845   -0.8138    0.9811 C   0  0  0  0  0  0  0  0  0  0  0  0
   -2.0364   -1.4732   -0.1681 C   0  0  0  0  0  0  0  0  0  0  0  0
   -2.5292   -0.4891   -1.1201 O   0  0  0  0  0  0  0  0  0  0  0  0
   -3.7809   -0.0058   -0.8893 C   0  0  0  0  0  0  0  0  0  0  0  0
   -4.4912   -0.3600    0.0298 O   0  0  0  0  0  0  0  0  0  0  0  0
   -4.1611    1.0300   -1.9177 C   0  0  0  0  0  0  0  0  0  0  0  0
    4.9474    1.6659    1.2529 H   0  0  0  0  0  0  0  0  0  0  0  0
    4.2034    2.0527   -0.3104 H   0  0  0  0  0  0  0  0  0  0  0  0
    5.0974    0.5357   -0.1070 H   0  0  0  0  0  0  0  0  0  0  0  0
    3.3624   -0.2557    1.5584 H   0  0  0  0  0  0  0  0  0  0  0  0
    2.4783    1.2524    1.3514 H   0  0  0  0  0  0  0  0  0  0  0  0
    3.0567   -0.7638   -0.8896 H   0  0  0  0  0  0  0  0  0  0  0  0
    2.0970    0.7002   -1.0704 H   0  0  0  0  0  0  0  0  0  0  0  0
    1.3774   -1.6425    0.7865 H   0  0  0  0  0  0  0  0  0  0  0  0
    0.7626   -1.4331   -0.8506 H   0  0  0  0  0  0  0  0  0  0  0  0
   -0.3107    0.7391   -0.1731 H   0  0  0  0  0  0  0  0  0  0  0  0
    0.3104    0.5408    1.4613 H   0  0  0  0  0  0  0  0  0  0  0  0
   -1.0018   -1.6142    1.6855 H   0  0  0  0  0  0  0  0  0  0  0  0
   -1.9883   -0.1649    1.5229 H   0  0  0  0  0  0  0  0  0  0  0  0
   -2.8884   -2.0519    0.2095 H   0  0  0  0  0  0  0  0  0  0  0  0
   -1.3871   -2.1257   -0.7645 H   0  0  0  0  0  0  0  0  0  0  0  0
   -5.1784    0.8262   -2.2710 H   0  0  0  0  0  0  0  0  0  0  0  0
   -3.4623    1.0540   -2.7591 H   0  0  0  0  0  0  0  0  0  0  0  0
   -4.1742    2.0156   -1.4331 H   0  0  0  0  0  0  0  0  0  0  0  0
  1  2  1  0  0  0  0
  1 12  1  0  0  0  0
  2 16  1  0  0  0  0
  2 15  1  0  0  0  0
  3  4  1  0  0  0  0
  3  2  1  0  0  0  0
  4  5  1  0  0  0  0
  4 19  1  0  0  0  0
  5  6  1  0  0  0  0
  5 22  1  0  0  0  0
  6 24  1  0  0  0  0
  6 23  1  0  0  0  0
  7 25  1  0  0  0  0
  7  6  1  0  0  0  0
  8  9  1  0  0  0  0
  8  7  1  0  0  0  0
  9 10  2  0  0  0  0
 11 29  1  0  0  0  0
 11  9  1  0  0  0  0
 13  1  1  0  0  0  0
 14  1  1  0  0  0  0
 17  3  1  0  0  0  0
 18  3  1  0  0  0  0
 20  4  1  0  0  0  0
 21  5  1  0  0  0  0
 26  7  1  0  0  0  0
 27 11  1  0  0  0  0
 28 11  1  0  0  0  0
M  END
>  <Charge>
0.0

>  <InChI>
1/C9H18O2/c1-3-4-5-6-7-8-11-9(2)10/h3-8H2,1-2H3

>  <Molecular Formula>
C_{9}H_{18}O_{2}

>  <Name>
HEPTYLACETAT

>  <SMILES>
CCCCCCCOC(=O)C

>  <logK (FORMAMIDE)>
3.55

>  <logK (HEPTYLACETAT)>
5.415

>  <Formula>
C9H18O2

>  <dipole moment>
1.88744347523

>  <mean polarizability>
18.45

$$$$
476
 OpenBabel08101817183D

 26 25  0  0  0  0  0  0  0  0999 V2000
    3.6841   -0.8653    0.7796 C   0  0  0  0  0  0  0  0  0  0  0  0
    3.5239    0.5296    0.1714 C   0  0  0  0  0  0  0  0  0  0  0  0
    2.1393    1.1565    0.3794 C   0  0  0  0  0  0  0  0  0  0  0  0
    1.0042    0.4342   -0.3501 C   0  0  0  0  0  0  0  0  0  0  0  0
   -0.3528    1.1263   -0.1480 C   0  0  0  0  0  0  0  0  0  0  0  0
   -1.4478    0.4487   -0.9417 C   0  0  0  0  0  0  0  0  0  0  0  0
   -1.4634    0.3389   -2.1518 O   0  0  0  0  0  0  0  0  0  0  0  0
   -2.4197   -0.0473   -0.1291 O   0  0  0  0  0  0  0  0  0  0  0  0
   -3.5060   -0.7377   -0.8034 C   0  0  0  0  0  0  0  0  0  0  0  0
   -4.4691   -1.2235    0.2579 C   0  0  0  0  0  0  0  0  0  0  0  0
    3.0041   -1.5956    0.3207 H   0  0  0  0  0  0  0  0  0  0  0  0
    3.4766   -0.8515    1.8598 H   0  0  0  0  0  0  0  0  0  0  0  0
    4.7067   -1.2419    0.6433 H   0  0  0  0  0  0  0  0  0  0  0  0
    4.2803    1.1999    0.6081 H   0  0  0  0  0  0  0  0  0  0  0  0
    3.7426    0.4891   -0.9082 H   0  0  0  0  0  0  0  0  0  0  0  0
    1.9164    1.1929    1.4597 H   0  0  0  0  0  0  0  0  0  0  0  0
    2.1661    2.2046    0.0387 H   0  0  0  0  0  0  0  0  0  0  0  0
    1.2207    0.3882   -1.4281 H   0  0  0  0  0  0  0  0  0  0  0  0
    0.9290   -0.6067    0.0003 H   0  0  0  0  0  0  0  0  0  0  0  0
   -0.2883    2.1649   -0.5077 H   0  0  0  0  0  0  0  0  0  0  0  0
   -0.6224    1.1537    0.9157 H   0  0  0  0  0  0  0  0  0  0  0  0
   -3.0839   -1.5644   -1.3918 H   0  0  0  0  0  0  0  0  0  0  0  0
   -3.9806   -0.0408   -1.5084 H   0  0  0  0  0  0  0  0  0  0  0  0
   -3.9760   -1.9151    0.9529 H   0  0  0  0  0  0  0  0  0  0  0  0
   -5.3061   -1.7531   -0.2162 H   0  0  0  0  0  0  0  0  0  0  0  0
   -4.8777   -0.3848    0.8358 H   0  0  0  0  0  0  0  0  0  0  0  0
  1 12  1  0  0  0  0
  2  3  1  0  0  0  0
  2 14  1  0  0  0  0
  2  1  1  0  0  0  0
  3 16  1  0  0  0  0
  4  5  1  0  0  0  0
  4 19  1  0  0  0  0
  4  3  1  0  0  0  0
  5 21  1  0  0  0  0
  6  5  1  0  0  0  0
  6  8  1  0  0  0  0
  7  6  2  0  0  0  0
  9  8  1  0  0  0  0
  9 10  1  0  0  0  0
 10 26  1  0  0  0  0
 10 24  1  0  0  0  0
 11  1  1  0  0  0  0
 13  1  1  0  0  0  0
 15  2  1  0  0  0  0
 17  3  1  0  0  0  0
 18  4  1  0  0  0  0
 20  5  1  0  0  0  0
 22  9  1  0  0  0  0
 23  9  1  0  0  0  0
 25 10  1  0  0  0  0
M  END
>  <Charge>
0.0

>  <InChI>
1/C8H16O2/c1-3-5-6-7-8(9)10-4-2/h3-7H2,1-2H3

>  <Molecular Formula>
C_{8}H_{16}O_{2}

>  <Name>
ETHYL HEXANOATE

>  <SMILES>
CCCCCC(=O)OCC

>  <logK (ETHYL HEXANOATE)>
4.844

>  <Formula>
C8H16O2

>  <dipole moment>
1.82164369005

>  <mean polarizability>
16.72

$$$$
477
 OpenBabel08101817183D

 86 85  0  0  0  0  0  0  0  0999 V2000
  -10.6620    3.1293    0.0283 C   0  0  0  0  0  0  0  0  0  0  0  0
  -11.2631    1.7225    0.1008 C   0  0  0  0  0  0  0  0  0  0  0  0
  -10.7104    0.7182   -0.9297 C   0  0  0  0  0  0  0  0  0  0  0  0
   -9.4939   -0.1074   -0.4847 C   0  0  0  0  0  0  0  0  0  0  0  0
   -8.2017    0.6790   -0.2376 C   0  0  0  0  0  0  0  0  0  0  0  0
   -6.9722   -0.2018    0.0266 C   0  0  0  0  0  0  0  0  0  0  0  0
   -7.0273   -0.9757    1.3483 C   0  0  0  0  0  0  0  0  0  0  0  0
   -5.7536   -1.7499    1.7183 C   0  0  0  0  0  0  0  0  0  0  0  0
   -5.3958   -2.9190    0.7762 C   0  0  0  0  0  0  0  0  0  0  0  0
   -4.3934   -2.5943   -0.3434 C   0  0  0  0  0  0  0  0  0  0  0  0
   -2.9551   -2.3967    0.1448 C   0  0  0  0  0  0  0  0  0  0  0  0
   -1.9795   -2.0556   -0.9855 C   0  0  0  0  0  0  0  0  0  0  0  0
   -0.5133   -1.9151   -0.5544 C   0  0  0  0  0  0  0  0  0  0  0  0
   -0.2332   -0.7151    0.3560 C   0  0  0  0  0  0  0  0  0  0  0  0
    1.2346   -0.5710    0.7847 C   0  0  0  0  0  0  0  0  0  0  0  0
    2.2433   -0.3217   -0.3483 C   0  0  0  0  0  0  0  0  0  0  0  0
    1.9926    0.9381   -1.1908 C   0  0  0  0  0  0  0  0  0  0  0  0
    1.9996    2.2658   -0.4182 C   0  0  0  0  0  0  0  0  0  0  0  0
    3.3097    2.6579    0.2848 C   0  0  0  0  0  0  0  0  0  0  0  0
    4.4969    2.9645   -0.6510 C   0  0  0  0  0  0  0  0  0  0  0  0
    5.4372    1.7925   -0.9748 C   0  0  0  0  0  0  0  0  0  0  0  0
    6.3003    1.3337    0.2042 C   0  0  0  0  0  0  0  0  0  0  0  0
    7.2615    0.1973   -0.1531 C   0  0  0  0  0  0  0  0  0  0  0  0
    8.1397   -0.2469    1.0195 C   0  0  0  0  0  0  0  0  0  0  0  0
    9.0697   -1.4294    0.7112 C   0  0  0  0  0  0  0  0  0  0  0  0
   10.1418   -1.1787   -0.3594 C   0  0  0  0  0  0  0  0  0  0  0  0
   11.1617   -0.0930   -0.0045 C   0  0  0  0  0  0  0  0  0  0  0  0
   12.2691    0.0468   -1.0495 C   0  0  0  0  0  0  0  0  0  0  0  0
   -9.5801    3.1310    0.2118 H   0  0  0  0  0  0  0  0  0  0  0  0
  -10.8274    3.5722   -0.9647 H   0  0  0  0  0  0  0  0  0  0  0  0
  -11.1247    3.7969    0.7687 H   0  0  0  0  0  0  0  0  0  0  0  0
  -12.3515    1.8095   -0.0402 H   0  0  0  0  0  0  0  0  0  0  0  0
  -11.1283    1.3107    1.1149 H   0  0  0  0  0  0  0  0  0  0  0  0
  -10.4693    1.2532   -1.8647 H   0  0  0  0  0  0  0  0  0  0  0  0
  -11.5102    0.0079   -1.1910 H   0  0  0  0  0  0  0  0  0  0  0  0
   -9.2917   -0.8683   -1.2578 H   0  0  0  0  0  0  0  0  0  0  0  0
   -9.7678   -0.6679    0.4241 H   0  0  0  0  0  0  0  0  0  0  0  0
   -8.3349    1.3647    0.6150 H   0  0  0  0  0  0  0  0  0  0  0  0
   -8.0023    1.3163   -1.1150 H   0  0  0  0  0  0  0  0  0  0  0  0
   -6.0717    0.4348    0.0281 H   0  0  0  0  0  0  0  0  0  0  0  0
   -6.8500   -0.9021   -0.8159 H   0  0  0  0  0  0  0  0  0  0  0  0
   -7.8722   -1.6833    1.3299 H   0  0  0  0  0  0  0  0  0  0  0  0
   -7.2499   -0.2604    2.1587 H   0  0  0  0  0  0  0  0  0  0  0  0
   -4.9062   -1.0468    1.7808 H   0  0  0  0  0  0  0  0  0  0  0  0
   -5.8864   -2.1406    2.7389 H   0  0  0  0  0  0  0  0  0  0  0  0
   -4.9810   -3.7501    1.3694 H   0  0  0  0  0  0  0  0  0  0  0  0
   -6.3252   -3.3101    0.3304 H   0  0  0  0  0  0  0  0  0  0  0  0
   -4.7164   -1.6938   -0.8893 H   0  0  0  0  0  0  0  0  0  0  0  0
   -4.4040   -3.4143   -1.0806 H   0  0  0  0  0  0  0  0  0  0  0  0
   -2.6166   -3.3181    0.6500 H   0  0  0  0  0  0  0  0  0  0  0  0
   -2.9301   -1.6048    0.9098 H   0  0  0  0  0  0  0  0  0  0  0  0
   -2.3036   -1.1202   -1.4740 H   0  0  0  0  0  0  0  0  0  0  0  0
   -2.0499   -2.8381   -1.7591 H   0  0  0  0  0  0  0  0  0  0  0  0
    0.1097   -1.8395   -1.4593 H   0  0  0  0  0  0  0  0  0  0  0  0
   -0.1934   -2.8400   -0.0434 H   0  0  0  0  0  0  0  0  0  0  0  0
   -0.5688    0.2052   -0.1509 H   0  0  0  0  0  0  0  0  0  0  0  0
   -0.8473   -0.7938    1.2664 H   0  0  0  0  0  0  0  0  0  0  0  0
    1.3071    0.2442    1.5219 H   0  0  0  0  0  0  0  0  0  0  0  0
    1.5370   -1.4844    1.3231 H   0  0  0  0  0  0  0  0  0  0  0  0
    2.2627   -1.1926   -1.0219 H   0  0  0  0  0  0  0  0  0  0  0  0
    3.2510   -0.2744    0.0942 H   0  0  0  0  0  0  0  0  0  0  0  0
    2.7403    0.9776   -1.9984 H   0  0  0  0  0  0  0  0  0  0  0  0
    1.0211    0.8446   -1.7023 H   0  0  0  0  0  0  0  0  0  0  0  0
    1.7306    3.0742   -1.1185 H   0  0  0  0  0  0  0  0  0  0  0  0
    1.1938    2.2482    0.3336 H   0  0  0  0  0  0  0  0  0  0  0  0
    3.5945    1.8833    1.0145 H   0  0  0  0  0  0  0  0  0  0  0  0
    3.0974    3.5549    0.8864 H   0  0  0  0  0  0  0  0  0  0  0  0
    5.1068    3.7668   -0.2045 H   0  0  0  0  0  0  0  0  0  0  0  0
    4.1032    3.3827   -1.5923 H   0  0  0  0  0  0  0  0  0  0  0  0
    6.1057    2.0969   -1.7971 H   0  0  0  0  0  0  0  0  0  0  0  0
    4.8628    0.9347   -1.3582 H   0  0  0  0  0  0  0  0  0  0  0  0
    6.8786    2.1945    0.5823 H   0  0  0  0  0  0  0  0  0  0  0  0
    5.6587    1.0117    1.0413 H   0  0  0  0  0  0  0  0  0  0  0  0
    7.8938    0.5183   -0.9973 H   0  0  0  0  0  0  0  0  0  0  0  0
    6.6832   -0.6681   -0.5212 H   0  0  0  0  0  0  0  0  0  0  0  0
    8.7308    0.6125    1.3764 H   0  0  0  0  0  0  0  0  0  0  0  0
    7.4878   -0.5274    1.8630 H   0  0  0  0  0  0  0  0  0  0  0  0
    9.5703   -1.7376    1.6441 H   0  0  0  0  0  0  0  0  0  0  0  0
    8.4544   -2.2900    0.3998 H   0  0  0  0  0  0  0  0  0  0  0  0
   10.6818   -2.1235   -0.5380 H   0  0  0  0  0  0  0  0  0  0  0  0
    9.6640   -0.9261   -1.3205 H   0  0  0  0  0  0  0  0  0  0  0  0
   11.6073   -0.3237    0.9775 H   0  0  0  0  0  0  0  0  0  0  0  0
   10.6525    0.8759    0.1146 H   0  0  0  0  0  0  0  0  0  0  0  0
   12.9890    0.8300   -0.7751 H   0  0  0  0  0  0  0  0  0  0  0  0
   11.8549    0.3062   -2.0346 H   0  0  0  0  0  0  0  0  0  0  0  0
   12.8270   -0.8936   -1.1651 H   0  0  0  0  0  0  0  0  0  0  0  0
  1  2  1  0  0  0  0
  1 29  1  0  0  0  0
  1 31  1  0  0  0  0
  2 33  1  0  0  0  0
  3  4  1  0  0  0  0
  3  2  1  0  0  0  0
  4  5  1  0  0  0  0
  4 37  1  0  0  0  0
  5  6  1  0  0  0  0
  5 38  1  0  0  0  0
  6 40  1  0  0  0  0
  6  7  1  0  0  0  0
  7  8  1  0  0  0  0
  7 43  1  0  0  0  0
  8 44  1  0  0  0  0
  8 45  1  0  0  0  0
  9 46  1  0  0  0  0
  9  8  1  0  0  0  0
 10 11  1  0  0  0  0
 10  9  1  0  0  0  0
 11 50  1  0  0  0  0
 11 51  1  0  0  0  0
 12 13  1  0  0  0  0
 12 11  1  0  0  0  0
 13 55  1  0  0  0  0
 13 14  1  0  0  0  0
 14 15  1  0  0  0  0
 14 57  1  0  0  0  0
 15 59  1  0  0  0  0
 15 58  1  0  0  0  0
 16 61  1  0  0  0  0
 16 15  1  0  0  0  0
 17 18  1  0  0  0  0
 17 16  1  0  0  0  0
 18 19  1  0  0  0  0
 18 65  1  0  0  0  0
 19 67  1  0  0  0  0
 19 66  1  0  0  0  0
 20 68  1  0  0  0  0
 20 19  1  0  0  0  0
 21 20  1  0  0  0  0
 21 22  1  0  0  0  0
 22 72  1  0  0  0  0
 22 73  1  0  0  0  0
 23 22  1  0  0  0  0
 23 24  1  0  0  0  0
 24 76  1  0  0  0  0
 24 77  1  0  0  0  0
 25 24  1  0  0  0  0
 25 78  1  0  0  0  0
 26 27  1  0  0  0  0
 26 25  1  0  0  0  0
 27 83  1  0  0  0  0
 27 82  1  0  0  0  0
 28 84  1  0  0  0  0
 28 27  1  0  0  0  0
 30  1  1  0  0  0  0
 32  2  1  0  0  0  0
 34  3  1  0  0  0  0
 35  3  1  0  0  0  0
 36  4  1  0  0  0  0
 39  5  1  0  0  0  0
 41  6  1  0  0  0  0
 42  7  1  0  0  0  0
 47  9  1  0  0  0  0
 48 10  1  0  0  0  0
 49 10  1  0  0  0  0
 52 12  1  0  0  0  0
 53 12  1  0  0  0  0
 54 13  1  0  0  0  0
 56 14  1  0  0  0  0
 60 16  1  0  0  0  0
 62 17  1  0  0  0  0
 63 17  1  0  0  0  0
 64 18  1  0  0  0  0
 69 20  1  0  0  0  0
 70 21  1  0  0  0  0
 71 21  1  0  0  0  0
 74 23  1  0  0  0  0
 75 23  1  0  0  0  0
 79 25  1  0  0  0  0
 80 26  1  0  0  0  0
 81 26  1  0  0  0  0
 85 28  1  0  0  0  0
 86 28  1  0  0  0  0
M  END
>  <Charge>
0.0

>  <InChI>
1/C28H58/c1-3-5-7-9-11-13-15-17-19-21-23-25-27-28-26-24-22-20-18-16-14-12-10-8-6-4-2/h3-28H2,1-2H3

>  <Molecular Formula>
C_{28}H_{58}

>  <Name>
OCTACOSANE

>  <SMILES>
CCCCCCCCCCCCCCCCCCCCCCCCCCCC

>  <logK (P-XYLENE)>
14.167

$$$$
478
 OpenBabel08101817183D

 13 13  0  0  1  0  0  0  0  0999 V2000
   -1.6241    0.1763   -0.4319 C   0  0  0  0  0  0  0  0  0  0  0  0
   -0.3288    0.2775    0.3410 C   0  0  1  0  0  0  0  0  0  0  0  0
    0.4992   -1.0096    0.4137 C   0  0  0  0  0  0  0  0  0  0  0  0
    1.8585   -0.5468    0.3318 O   0  0  0  0  0  0  0  0  0  0  0  0
    1.8644    0.7150   -0.2042 C   0  0  0  0  0  0  0  0  0  0  0  0
    2.8503    1.3125   -0.5248 O   0  0  0  0  0  0  0  0  0  0  0  0
    0.5873    1.1894   -0.3198 O   0  0  0  0  0  0  0  0  0  0  0  0
   -2.1190    1.1528   -0.4915 H   0  0  0  0  0  0  0  0  0  0  0  0
   -2.3069   -0.5209    0.0733 H   0  0  0  0  0  0  0  0  0  0  0  0
   -1.4414   -0.1889   -1.4508 H   0  0  0  0  0  0  0  0  0  0  0  0
   -0.5088    0.6810    1.3509 H   0  0  0  0  0  0  0  0  0  0  0  0
    0.2981   -1.6770   -0.4393 H   0  0  0  0  0  0  0  0  0  0  0  0
    0.3710   -1.5613    1.3516 H   0  0  0  0  0  0  0  0  0  0  0  0
  1  9  1  0  0  0  0
  1  2  1  0  0  0  0
  2  3  1  0  0  0  0
  2 11  1  1  0  0  0
  3 13  1  0  0  0  0
  4  3  1  0  0  0  0
  5  4  1  0  0  0  0
  6  5  2  0  0  0  0
  7  5  1  0  0  0  0
  7  2  1  0  0  0  0
  8  1  1  0  0  0  0
 10  1  1  0  0  0  0
 12  3  1  0  0  0  0
M  END
>  <Charge>
0.0

>  <InChI>
1/C4H6O3/c1-3-2-6-4(5)7-3/h3H,2H2,1H3

>  <Molecular Formula>
C_{4}H_{6}O_{3}

>  <Name>
PROPYLENE CARBONATE

>  <SMILES>
CC1COC(=O)O1

>  <logK (CHLOROFORM)>
5.56

>  <mean polarizability>
8.84

>  <dipole moment>
5.48959096223

>  <experimental polarizability source>
@Article{Bosque2002, Title = {Polarizabilities of Solvents from the Chemical Composition}, Author = {Bosque, Ramon and Sales, Joaquim}, Journal = {Journal of Chemical Information and Computer Sciences}, Year = {2002}, Note = {PMID: 12377003}, Number = {5}, Pages = {1154-1163}, Volume = {42}, Doi = {10.1021/ci025528x}, Url = {https://doi.org/10.1021/ci025528x}}

>  <Formula>
C4H6O3

$$$$
479
 OpenBabel08101817183D

 15 15  0  0  0  0  0  0  0  0999 V2000
   -0.0158   -1.1385    0.3708 C   0  0  0  0  0  0  0  0  0  0  0  0
   -1.0816   -0.4610   -0.4844 C   0  0  0  0  0  0  0  0  0  0  0  0
   -1.1738    1.0024   -0.0983 C   0  0  0  0  0  0  0  0  0  0  0  0
    0.0945    1.7095   -0.1438 O   0  0  0  0  0  0  0  0  0  0  0  0
    1.2825    1.0852    0.1053 C   0  0  0  0  0  0  0  0  0  0  0  0
    2.2780    1.7639    0.2192 O   0  0  0  0  0  0  0  0  0  0  0  0
    1.3236   -0.4355    0.1447 C   0  0  0  0  0  0  0  0  0  0  0  0
    0.0721   -2.2075    0.1333 H   0  0  0  0  0  0  0  0  0  0  0  0
   -0.3029   -1.0728    1.4323 H   0  0  0  0  0  0  0  0  0  0  0  0
   -2.0698   -0.9218   -0.3410 H   0  0  0  0  0  0  0  0  0  0  0  0
   -0.8309   -0.5546   -1.5529 H   0  0  0  0  0  0  0  0  0  0  0  0
   -1.8304    1.5673   -0.7717 H   0  0  0  0  0  0  0  0  0  0  0  0
   -1.5662    1.1057    0.9267 H   0  0  0  0  0  0  0  0  0  0  0  0
    2.0783   -0.7113    0.8914 H   0  0  0  0  0  0  0  0  0  0  0  0
    1.7426   -0.7313   -0.8314 H   0  0  0  0  0  0  0  0  0  0  0  0
  1  9  1  0  0  0  0
  2 10  1  0  0  0  0
  2  3  1  0  0  0  0
  2  1  1  0  0  0  0
  3 13  1  0  0  0  0
  4  3  1  0  0  0  0
  4  5  1  0  0  0  0
  5  7  1  0  0  0  0
  5  6  2  0  0  0  0
  7  1  1  0  0  0  0
  7 14  1  0  0  0  0
  8  1  1  0  0  0  0
 11  2  1  0  0  0  0
 12  3  1  0  0  0  0
 15  7  1  0  0  0  0
M  END
>  <Charge>
0.0

>  <InChI>
1/C5H8O2/c6-5-3-1-2-4-7-5/h1-4H2

>  <Molecular Formula>
C_{5}H_{8}O_{2}

>  <Name>
DELTA-VALEROLACTONE

>  <SMILES>
C1CCOC(=O)C1

>  <logK (CHLOROFORM)>
6.4

>  <mean polarizability>
9.98

>  <dipole moment>
4.80025028142

$$$$
480
 OpenBabel08101817183D

 19 18  0  0  0  0  0  0  0  0999 V2000
    3.4020   -0.0585    0.3547 C   0  0  0  0  0  0  0  0  0  0  0  0
    2.2037    0.4841   -0.3920 C   0  0  0  0  0  0  0  0  0  0  0  0
    1.0783   -0.4005   -0.1210 O   0  0  0  0  0  0  0  0  0  0  0  0
   -0.0825   -0.0664   -0.7290 C   0  0  0  0  0  0  0  0  0  0  0  0
   -0.2194    0.8944   -1.4613 O   0  0  0  0  0  0  0  0  0  0  0  0
   -1.1873   -1.0402   -0.3555 C   0  0  0  0  0  0  0  0  0  0  0  0
   -2.2899   -0.3426    0.4646 C   0  0  0  0  0  0  0  0  0  0  0  0
   -2.3908   -0.5511    1.6580 O   0  0  0  0  0  0  0  0  0  0  0  0
   -3.2130    0.5734   -0.2973 C   0  0  0  0  0  0  0  0  0  0  0  0
    4.2710    0.5876    0.1734 H   0  0  0  0  0  0  0  0  0  0  0  0
    3.2162   -0.0877    1.4359 H   0  0  0  0  0  0  0  0  0  0  0  0
    3.6530   -1.0723    0.0172 H   0  0  0  0  0  0  0  0  0  0  0  0
    1.9325    1.4981   -0.0668 H   0  0  0  0  0  0  0  0  0  0  0  0
    2.3668    0.5147   -1.4782 H   0  0  0  0  0  0  0  0  0  0  0  0
   -1.6200   -1.4090   -1.2965 H   0  0  0  0  0  0  0  0  0  0  0  0
   -0.7889   -1.8712    0.2331 H   0  0  0  0  0  0  0  0  0  0  0  0
   -3.8381    1.1456    0.3950 H   0  0  0  0  0  0  0  0  0  0  0  0
   -2.6354    1.2369   -0.9560 H   0  0  0  0  0  0  0  0  0  0  0  0
   -3.8579   -0.0353   -0.9508 H   0  0  0  0  0  0  0  0  0  0  0  0
  1 11  1  0  0  0  0
  2  3  1  0  0  0  0
  2 13  1  0  0  0  0
  2  1  1  0  0  0  0
  4  6  1  0  0  0  0
  4  3  1  0  0  0  0
  5  4  2  0  0  0  0
  6 16  1  0  0  0  0
  6  7  1  0  0  0  0
  7  8  2  0  0  0  0
  9 17  1  0  0  0  0
  9  7  1  0  0  0  0
 10  1  1  0  0  0  0
 12  1  1  0  0  0  0
 14  2  1  0  0  0  0
 15  6  1  0  0  0  0
 18  9  1  0  0  0  0
 19  9  1  0  0  0  0
M  END
>  <Charge>
0.0

>  <InChI>
1/C6H10O3/c1-3-9-6(8)4-5(2)7/h3-4H2,1-2H3

>  <Molecular Formula>
C_{6}H_{10}O_{3}

>  <Name>
ETHYL ACETOACETATE

>  <SMILES>
CCOC(=O)CC(=O)C

>  <logK (CHLOROFORM)>
5.79

>  <dipole moment>
2.18757940939

>  <mean polarizability>
13.27

$$$$
481
 OpenBabel08101817183D

 14 13  0  0  0  0  0  0  0  0999 V2000
   -2.0180    0.3638   -0.9145 C   0  0  0  0  0  0  0  0  0  0  0  0
   -1.1930    0.3033    0.3548 C   0  0  0  0  0  0  0  0  0  0  0  0
    0.2289    0.4995    0.0650 O   0  0  0  0  0  0  0  0  0  0  0  0
    0.9270   -0.6009   -0.2322 C   0  0  0  0  0  0  0  0  0  0  0  0
    0.5319   -1.7401   -0.2788 O   0  0  0  0  0  0  0  0  0  0  0  0
    2.4067   -0.2008   -0.5201 C   0  0  0  0  0  0  0  0  0  0  0  0
    2.9645    0.3910    0.5630 F   0  0  0  0  0  0  0  0  0  0  0  0
    3.1322   -1.2845   -0.8303 F   0  0  0  0  0  0  0  0  0  0  0  0
    2.4759    0.6696   -1.5559 F   0  0  0  0  0  0  0  0  0  0  0  0
   -1.7707   -0.4665   -1.5868 H   0  0  0  0  0  0  0  0  0  0  0  0
   -1.8599    1.3120   -1.4429 H   0  0  0  0  0  0  0  0  0  0  0  0
   -3.0834    0.2875   -0.6579 H   0  0  0  0  0  0  0  0  0  0  0  0
   -1.4329    1.1234    1.0404 H   0  0  0  0  0  0  0  0  0  0  0  0
   -1.3090   -0.6572    0.8715 H   0  0  0  0  0  0  0  0  0  0  0  0
  1 12  1  0  0  0  0
  1  2  1  0  0  0  0
  2 14  1  0  0  0  0
  2 13  1  0  0  0  0
  3  2  1  0  0  0  0
  4  3  1  0  0  0  0
  5  4  2  0  0  0  0
  6  4  1  0  0  0  0
  6  7  1  0  0  0  0
  8  6  1  0  0  0  0
  9  6  1  0  0  0  0
 10  1  1  0  0  0  0
 11  1  1  0  0  0  0
M  END
>  <Charge>
0.0

>  <InChI>
1/C4H5F3O2/c1-2-9-3(8)4(5,6)7/h2H2,1H3

>  <Molecular Formula>
C_{4}H_{5}F_{3}O_{2}

>  <Name>
ETHYL TRIFLUOROACETATE

>  <SMILES>
CCOC(=O)C(F)(F)F

>  <logK (CHLOROFORM)>
3.04

>  <mean polarizability>
9.31

>  <dipole moment>
3.28661693254

$$$$
482
 OpenBabel08101817183D

 14 13  0  0  0  0  0  0  0  0999 V2000
   -2.0816    0.2099    0.3581 C   0  0  0  0  0  0  0  0  0  0  0  0
   -1.1032    0.7060   -0.6870 C   0  0  0  0  0  0  0  0  0  0  0  0
    0.2726    0.6387   -0.1948 O   0  0  0  0  0  0  0  0  0  0  0  0
    0.9022   -0.5263   -0.3739 C   0  0  0  0  0  0  0  0  0  0  0  0
    0.4661   -1.5133   -0.9131 O   0  0  0  0  0  0  0  0  0  0  0  0
    2.3430   -0.4466    0.2338 C   0  0  0  0  0  0  0  0  0  0  0  0
    2.1929   -0.1806    2.0007 Cl  0  0  0  0  0  0  0  0  0  0  0  0
    3.2083   -1.9575   -0.0689 Cl  0  0  0  0  0  0  0  0  0  0  0  0
    3.2291    0.9156   -0.5176 Cl  0  0  0  0  0  0  0  0  0  0  0  0
   -3.1065    0.3417   -0.0144 H   0  0  0  0  0  0  0  0  0  0  0  0
   -1.9305   -0.8559    0.5670 H   0  0  0  0  0  0  0  0  0  0  0  0
   -1.9809    0.7759    1.2924 H   0  0  0  0  0  0  0  0  0  0  0  0
   -1.1663    0.1230   -1.6139 H   0  0  0  0  0  0  0  0  0  0  0  0
   -1.2451    1.7696   -0.9089 H   0  0  0  0  0  0  0  0  0  0  0  0
  1 11  1  0  0  0  0
  1 12  1  0  0  0  0
  2  3  1  0  0  0  0
  2  1  1  0  0  0  0
  4  3  1  0  0  0  0
  4  6  1  0  0  0  0
  5  4  2  0  0  0  0
  6  7  1  0  0  0  0
  8  6  1  0  0  0  0
  9  6  1  0  0  0  0
 10  1  1  0  0  0  0
 13  2  1  0  0  0  0
 14  2  1  0  0  0  0
M  END
>  <Charge>
0.0

>  <InChI>
1/C4H5Cl3O2/c1-2-9-3(8)4(5,6)7/h2H2,1H3

>  <Molecular Formula>
C_{4}H_{5}Cl_{3}O_{2}

>  <Name>
ETHYL TRICHLOROACETATE

>  <SMILES>
CCOC(=O)C(Cl)(Cl)Cl

>  <logK (CHLOROFORM)>
5.23

>  <mean polarizability>
15.16

>  <dipole moment>
2.83194095764

$$$$
483
 OpenBabel08101817183D

  9  8  0  0  1  0  0  0  0  0999 V2000
    1.0327   -0.0682   -0.0447 C   0  0  0  0  0  0  0  0  0  0  0  0
   -0.4642   -0.1722    0.0108 C   0  0  2  0  0  0  0  0  0  0  0  0
   -1.0721   -1.2870   -0.0167 N   0  0  0  0  0  0  0  0  0  0  0  0
   -1.1419    1.0266    0.0934 O   0  0  0  0  0  0  0  0  0  0  0  0
    1.4212    0.4345    0.8536 H   0  0  0  0  0  0  0  0  0  0  0  0
    1.4690   -1.0682   -0.1086 H   0  0  0  0  0  0  0  0  0  0  0  0
    1.3500    0.5170   -0.9206 H   0  0  0  0  0  0  0  0  0  0  0  0
   -2.0886   -1.1437    0.0308 H   0  0  0  0  0  0  0  0  0  0  0  0
   -0.5060    1.7611    0.1021 H   0  0  0  0  0  0  0  0  0  0  0  0
  1  5  1  0  0  0  0
  2  1  1  0  0  0  0
  2  4  1  6  0  0  0
  3  2  1  0  0  0  0
  3  8  1  0  0  0  0
  4  9  1  0  0  0  0
  6  1  1  0  0  0  0
  7  1  1  0  0  0  0
M  RAD  2   2   2   3   2
M  END
>  <Charge>
0.0

>  <InChI>
1/C2H5NO/c1-2(3)4/h1H3,(H2,3,4)

>  <Molecular Formula>
C_{2}H_{5}NO

>  <Name>
ACETAMIDE

>  <SMILES>
CC(=N)O

>  <logK (1-HEXADECENE)>
3.12

>  <logK (CHLOROFORM)>
5.57

>  <mean polarizability>
6.05

>  <dipole moment>
2.99370662932

$$$$
484
 OpenBabel08101817183D

 12 11  0  0  1  0  0  0  0  0999 V2000
   -1.3198   -0.1575   -0.4840 C   0  0  0  0  0  0  0  0  0  0  0  0
    0.1111   -0.6268   -0.1815 C   0  0  0  0  0  0  0  0  0  0  0  0
    0.9539    0.4261    0.5114 C   0  0  2  0  0  0  0  0  0  0  0  0
    1.4239    0.4045    1.6934 N   0  0  0  0  0  0  0  0  0  0  0  0
    1.2254    1.5404   -0.2381 O   0  0  0  0  0  0  0  0  0  0  0  0
   -1.8886   -0.9499   -0.9865 H   0  0  0  0  0  0  0  0  0  0  0  0
   -1.8467    0.1097    0.4409 H   0  0  0  0  0  0  0  0  0  0  0  0
   -1.3373    0.7244   -1.1398 H   0  0  0  0  0  0  0  0  0  0  0  0
    0.0851   -1.5199    0.4562 H   0  0  0  0  0  0  0  0  0  0  0  0
    0.6132   -0.9244   -1.1177 H   0  0  0  0  0  0  0  0  0  0  0  0
    1.1608   -0.4674    2.1592 H   0  0  0  0  0  0  0  0  0  0  0  0
    0.8189    1.4409   -1.1134 H   0  0  0  0  0  0  0  0  0  0  0  0
  1  2  1  0  0  0  0
  1  7  1  0  0  0  0
  2  9  1  0  0  0  0
  3  2  1  0  0  0  0
  3  5  1  1  0  0  0
  3  4  1  0  0  0  0
  4 11  1  0  0  0  0
  6  1  1  0  0  0  0
  8  1  1  0  0  0  0
 10  2  1  0  0  0  0
 12  5  1  0  0  0  0
M  RAD  2   3   2   4   2
M  END
>  <Charge>
0.0

>  <InChI>
1/C3H7NO/c1-2-3(4)5/h2H2,1H3,(H2,4,5)

>  <Molecular Formula>
C_{3}H_{7}NO

>  <Name>
PROPIONAMIDE

>  <SMILES>
CCC(=N)O

>  <logK (CHLOROFORM)>
5.48

>  <mean polarizability>
7.82

>  <dipole moment>
4.28664027884

$$$$
485
 OpenBabel08101817183D

 15 14  0  0  0  0  0  0  0  0999 V2000
    1.8796   -0.6466   -0.0331 C   0  0  0  0  0  0  0  0  0  0  0  0
    0.9410    0.5288   -0.2451 C   0  0  0  0  0  0  0  0  0  0  0  0
    1.3565    1.6766   -0.4147 O   0  0  0  0  0  0  0  0  0  0  0  0
   -0.4039    0.2547   -0.2406 N   0  0  0  0  0  0  0  0  0  0  0  0
   -1.3059    1.3844   -0.4446 C   0  0  0  0  0  0  0  0  0  0  0  0
   -0.9354   -1.0867   -0.0440 C   0  0  0  0  0  0  0  0  0  0  0  0
    1.7049   -1.1365    0.9354 H   0  0  0  0  0  0  0  0  0  0  0  0
    2.9045   -0.2680   -0.0636 H   0  0  0  0  0  0  0  0  0  0  0  0
    1.7547   -1.4120   -0.8122 H   0  0  0  0  0  0  0  0  0  0  0  0
   -2.3401    1.0269   -0.4178 H   0  0  0  0  0  0  0  0  0  0  0  0
   -1.1138    1.8697   -1.4115 H   0  0  0  0  0  0  0  0  0  0  0  0
   -1.1638    2.1452    0.3354 H   0  0  0  0  0  0  0  0  0  0  0  0
   -0.6500   -1.5064    0.9328 H   0  0  0  0  0  0  0  0  0  0  0  0
   -0.5999   -1.7842   -0.8267 H   0  0  0  0  0  0  0  0  0  0  0  0
   -2.0285   -1.0456   -0.0816 H   0  0  0  0  0  0  0  0  0  0  0  0
  1  7  1  0  0  0  0
  2  4  1  0  0  0  0
  2  1  1  0  0  0  0
  3  2  2  0  0  0  0
  4  6  1  0  0  0  0
  5 10  1  0  0  0  0
  5  4  1  0  0  0  0
  5 12  1  0  0  0  0
  6 13  1  0  0  0  0
  8  1  1  0  0  0  0
  9  1  1  0  0  0  0
 11  5  1  0  0  0  0
 14  6  1  0  0  0  0
 15  6  1  0  0  0  0
M  END
>  <Charge>
0.0

>  <InChI>
1/C4H9NO/c1-4(6)5(2)3/h1-3H3

>  <Molecular Formula>
C_{4}H_{9}NO

>  <Name>
N,N-DIMETHYLACETAMIDE

>  <SMILES>
CC(=O)N(C)C

>  <logK (CHLOROFORM)>
5.906

>  <logK (DICHLOROETHANE)>
5.31

>  <logK (N,N-DIMETHYLACETAMIDE)>
4.96

>  <mean polarizability>
9.69

>  <dipole moment>
3.98171204715

>  <Formula>
C4H9NO

$$$$
486
 OpenBabel08101817183D

  9  8  0  0  0  0  0  0  0  0999 V2000
    0.2840   -0.3508   -0.5690 C   0  0  0  0  0  0  0  0  0  0  0  0
    0.2500   -1.0037   -1.5917 O   0  0  0  0  0  0  0  0  0  0  0  0
   -1.0457    0.0680    0.1778 C   0  0  0  0  0  0  0  0  0  0  0  0
   -1.0188   -0.6062    1.8474 Cl  0  0  0  0  0  0  0  0  0  0  0  0
   -1.1256    1.8645    0.2723 Cl  0  0  0  0  0  0  0  0  0  0  0  0
   -2.4466   -0.5454   -0.6894 Cl  0  0  0  0  0  0  0  0  0  0  0  0
    1.4110    0.0869    0.0408 N   0  0  0  0  0  0  0  0  0  0  0  0
    2.3013   -0.1433   -0.3816 H   0  0  0  0  0  0  0  0  0  0  0  0
    1.3904    0.6301    0.8936 H   0  0  0  0  0  0  0  0  0  0  0  0
  1  7  1  0  0  0  0
  1  3  1  0  0  0  0
  2  1  2  0  0  0  0
  3  5  1  0  0  0  0
  3  4  1  0  0  0  0
  6  3  1  0  0  0  0
  7  9  1  0  0  0  0
  8  7  1  0  0  0  0
M  END
>  <Charge>
0.0

>  <InChI>
1/C2H2Cl3NO/c3-2(4,5)1(6)7/h(H2,6,7)

>  <Molecular Formula>
C_{2}H_{2}Cl_{3}NO

>  <Name>
2,2,2-TRICHLOROACETAMIDE

>  <SMILES>
C(=O)(C(Cl)(Cl)Cl)N

>  <logK (CHLOROFORM)>
5.07

>  <mean polarizability>
12.03

>  <dipole moment>
3.28841804893

$$$$
487
 OpenBabel08101817183D

 13 12  0  0  1  0  0  0  0  0999 V2000
   -1.6992    0.0216   -0.0836 C   0  0  0  0  0  0  0  0  0  0  0  0
   -0.6793   -0.4850    0.9222 C   0  0  0  0  0  0  0  0  0  0  0  0
    0.5234   -0.9608    0.2867 O   0  0  0  0  0  0  0  0  0  0  0  0
    1.4552   -0.0412   -0.0524 C   0  0  1  0  0  0  0  0  0  0  0  0
    1.5160    1.2203    0.1313 N   0  0  0  0  0  0  0  0  0  0  0  0
    2.4526   -0.7018   -0.6836 O   0  0  0  0  0  0  0  0  0  0  0  0
   -1.9546   -0.7672   -0.8020 H   0  0  0  0  0  0  0  0  0  0  0  0
   -2.6177    0.3220    0.4389 H   0  0  0  0  0  0  0  0  0  0  0  0
   -1.3230    0.8889   -0.6403 H   0  0  0  0  0  0  0  0  0  0  0  0
   -0.4231    0.2809    1.6715 H   0  0  0  0  0  0  0  0  0  0  0  0
   -1.0594   -1.3617    1.4605 H   0  0  0  0  0  0  0  0  0  0  0  0
    0.7020    1.5984    0.6162 H   0  0  0  0  0  0  0  0  0  0  0  0
    3.1070   -0.0143   -0.9015 H   0  0  0  0  0  0  0  0  0  0  0  0
  1  8  1  0  0  0  0
  1  2  1  0  0  0  0
  2 11  1  0  0  0  0
  2 10  1  0  0  0  0
  3  2  1  0  0  0  0
  4  6  1  1  0  0  0
  4  5  1  0  0  0  0
  4  3  1  0  0  0  0
  5 12  1  0  0  0  0
  7  1  1  0  0  0  0
  9  1  1  0  0  0  0
 13  6  1  0  0  0  0
M  RAD  2   4   2   5   2
M  END
>  <Charge>
0.0

>  <InChI>
1/C3H7NO2/c1-2-6-3(4)5/h2H2,1H3,(H2,4,5)

>  <Molecular Formula>
C_{3}H_{7}NO_{2}

>  <Name>
ETHYL CARBAMATE

>  <SMILES>
CCOC(=N)O

>  <logK (CHLOROFORM)>
5.67

>  <mean polarizability>
8.52

>  <dipole moment>
2.24487686966

$$$$
488
 OpenBabel08101817183D

  5  4  0  0  0  0  0  0  0  0999 V2000
   -0.4302   -0.0465   -0.0162 C   0  0  0  0  0  0  0  0  0  0  0  0
   -1.3913   -0.7046    0.2690 O   0  0  0  0  0  0  0  0  0  0  0  0
    0.8337   -0.4167    0.3253 O   0  0  0  0  0  0  0  0  0  0  0  0
   -0.4719    0.9138   -0.5772 H   0  0  0  0  0  0  0  0  0  0  0  0
    1.4597    0.2541   -0.0009 H   0  0  0  0  0  0  0  0  0  0  0  0
  1  2  2  0  0  0  0
  1  3  1  0  0  0  0
  4  1  1  0  0  0  0
  5  3  1  0  0  0  0
M  END
>  <Charge>
0.0

>  <InChI>
1/CH2O2/c2-1-3/h1H,(H,2,3)

>  <Molecular Formula>
CH_{2}O_{2}

>  <Name>
FORMIC ACID

>  <SMILES>
C(=O)O

>  <logK (1-HEXADECENE)>
1.807

>  <logK (CARBON TETRACHLORIDE)>
2.19

>  <logK (CHLOROFORM)>
3.21

>  <logK (DICHLOROETHANE)>
3.23

>  <mean polarizability>
3.48

>  <dipole moment>
3.75978830495

$$$$
489
 OpenBabel08101817183D

 14 13  0  0  0  0  0  0  0  0999 V2000
   -0.4175    1.2469   -0.7194 C   0  0  0  0  0  0  0  0  0  0  0  0
   -0.0411    0.1274    0.2610 C   0  0  0  0  0  0  0  0  0  0  0  0
   -1.0922   -0.9914    0.2660 C   0  0  0  0  0  0  0  0  0  0  0  0
    1.3168   -0.4568   -0.1363 C   0  0  0  0  0  0  0  0  0  0  0  0
    1.5347   -0.9895   -1.1972 O   0  0  0  0  0  0  0  0  0  0  0  0
    2.3228   -0.3531    0.7891 O   0  0  0  0  0  0  0  0  0  0  0  0
    0.3139    2.0658   -0.7041 H   0  0  0  0  0  0  0  0  0  0  0  0
   -1.4013    1.6607   -0.4610 H   0  0  0  0  0  0  0  0  0  0  0  0
   -0.4631    0.8496   -1.7414 H   0  0  0  0  0  0  0  0  0  0  0  0
    0.0245    0.5547    1.2767 H   0  0  0  0  0  0  0  0  0  0  0  0
   -2.0775   -0.5831    0.5270 H   0  0  0  0  0  0  0  0  0  0  0  0
   -0.8452   -1.7801    0.9890 H   0  0  0  0  0  0  0  0  0  0  0  0
   -1.1560   -1.4491   -0.7294 H   0  0  0  0  0  0  0  0  0  0  0  0
    1.9814    0.0979    1.5800 H   0  0  0  0  0  0  0  0  0  0  0  0
  1  7  1  0  0  0  0
  1  8  1  0  0  0  0
  1  2  1  0  0  0  0
  2  3  1  0  0  0  0
  2 10  1  0  0  0  0
  3 11  1  0  0  0  0
  3 12  1  0  0  0  0
  4  2  1  0  0  0  0
  4  6  1  0  0  0  0
  5  4  2  0  0  0  0
  6 14  1  0  0  0  0
  9  1  1  0  0  0  0
 13  3  1  0  0  0  0
M  END
>  <Charge>
0.0

>  <InChI>
1/C4H8O2/c1-3(2)4(5)6/h3H,1-2H3,(H,5,6)

>  <Molecular Formula>
C_{4}H_{8}O_{2}

>  <Name>
ISOBUTYRIC ACID

>  <SMILES>
CC(C)C(=O)O

>  <logK (CHLOROFORM)>
4.25

>  <mean polarizability>
8.86

>  <dipole moment>
4.10699318631

$$$$
490
 OpenBabel08101817183D

 20 19  0  0  1  0  0  0  0  0999 V2000
    2.5139    0.1002   -1.3884 C   0  0  0  0  0  0  0  0  0  0  0  0
    1.4960    0.3960   -0.2871 C   0  0  0  0  0  0  0  0  0  0  0  0
    0.2713   -0.5190   -0.3518 C   0  0  0  0  0  0  0  0  0  0  0  0
   -0.7552   -0.2758    0.7619 C   0  0  2  0  0  0  0  0  0  0  0  0
   -1.8734   -1.3354    0.7487 C   0  0  0  0  0  0  0  0  0  0  0  0
   -1.3989    1.0932    0.6199 C   0  0  0  0  0  0  0  0  0  0  0  0
   -1.7418    1.6126   -0.4222 O   0  0  0  0  0  0  0  0  0  0  0  0
   -1.6012    1.6902    1.8323 O   0  0  0  0  0  0  0  0  0  0  0  0
    3.3857    0.7644   -1.3195 H   0  0  0  0  0  0  0  0  0  0  0  0
    2.0697    0.2353   -2.3847 H   0  0  0  0  0  0  0  0  0  0  0  0
    2.8784   -0.9355   -1.3260 H   0  0  0  0  0  0  0  0  0  0  0  0
    1.9771    0.2908    0.6991 H   0  0  0  0  0  0  0  0  0  0  0  0
    1.1714    1.4458   -0.3627 H   0  0  0  0  0  0  0  0  0  0  0  0
   -0.2309   -0.3983   -1.3244 H   0  0  0  0  0  0  0  0  0  0  0  0
    0.5959   -1.5704   -0.2906 H   0  0  0  0  0  0  0  0  0  0  0  0
   -0.2540   -0.3074    1.7410 H   0  0  0  0  0  0  0  0  0  0  0  0
   -1.4389   -2.3360    0.8726 H   0  0  0  0  0  0  0  0  0  0  0  0
   -2.4154   -1.3118   -0.2060 H   0  0  0  0  0  0  0  0  0  0  0  0
   -2.5940   -1.1732    1.5605 H   0  0  0  0  0  0  0  0  0  0  0  0
   -2.0561    2.5341    1.6402 H   0  0  0  0  0  0  0  0  0  0  0  0
  1 11  1  0  0  0  0
  1  9  1  0  0  0  0
  1  2  1  0  0  0  0
  2 12  1  0  0  0  0
  3 15  1  0  0  0  0
  3  2  1  0  0  0  0
  3  4  1  0  0  0  0
  4 16  1  1  0  0  0
  5  4  1  0  0  0  0
  5 17  1  0  0  0  0
  5 19  1  0  0  0  0
  6  4  1  0  0  0  0
  6  8  1  0  0  0  0
  7  6  2  0  0  0  0
 10  1  1  0  0  0  0
 13  2  1  0  0  0  0
 14  3  1  0  0  0  0
 18  5  1  0  0  0  0
 20  8  1  0  0  0  0
M  END
>  <Charge>
0.0

>  <InChI>
1/C6H12O2/c1-3-4-5(2)6(7)8/h5H,3-4H2,1-2H3,(H,7,8)

>  <Molecular Formula>
C_{6}H_{12}O_{2}

>  <Name>
2-METHYLPENTANOIC ACID

>  <SMILES>
CCCC(C)C(=O)O

>  <logK (CHLOROFORM)>
5.12

>  <mean polarizability>
12.68

>  <dipole moment>
1.53470071229

$$$$
491
 OpenBabel08101817183D

  8  7  0  0  0  0  0  0  0  0999 V2000
    0.7171   -0.1309   -0.3207 C   0  0  0  0  0  0  0  0  0  0  0  0
   -0.7149    0.4011   -0.2768 C   0  0  0  0  0  0  0  0  0  0  0  0
   -1.1528    1.0014   -1.2287 O   0  0  0  0  0  0  0  0  0  0  0  0
   -1.4348    0.1737    0.8365 O   0  0  0  0  0  0  0  0  0  0  0  0
    1.2506   -1.0086    1.1611 Cl  0  0  0  0  0  0  0  0  0  0  0  0
    0.8084   -0.8202   -1.1663 H   0  0  0  0  0  0  0  0  0  0  0  0
    1.3991    0.7120   -0.4717 H   0  0  0  0  0  0  0  0  0  0  0  0
   -0.8726   -0.3285    1.4665 H   0  0  0  0  0  0  0  0  0  0  0  0
  1  2  1  0  0  0  0
  1  5  1  0  0  0  0
  2  4  1  0  0  0  0
  3  2  2  0  0  0  0
  4  8  1  0  0  0  0
  6  1  1  0  0  0  0
  7  1  1  0  0  0  0
M  END
>  <Charge>
0.0

>  <InChI>
1/C2H3ClO2/c3-1-2(4)5/h1H2,(H,4,5)

>  <Molecular Formula>
C_{2}H_{3}ClO_{2}

>  <Name>
CHLOROACETIC ACID

>  <SMILES>
C(C(=O)O)Cl

>  <logK (CARBON TETRACHLORIDE)>
3.88

>  <logK (CHLOROFORM)>
4.91

>  <mean polarizability>
7.25

>  <dipole moment>
2.77843316661

$$$$
492
 OpenBabel08101817183D

 12 11  0  0  0  0  0  0  0  0999 V2000
   -0.2266    0.5820   -0.2062 C   0  0  0  0  0  0  0  0  0  0  0  0
    0.9888   -0.2703    0.1234 C   0  0  0  0  0  0  0  0  0  0  0  0
    2.1473    0.5585   -0.0224 O   0  0  0  0  0  0  0  0  0  0  0  0
   -1.5389   -0.1788   -0.1842 C   0  0  0  0  0  0  0  0  0  0  0  0
   -1.9698   -0.7789    1.4695 Cl  0  0  0  0  0  0  0  0  0  0  0  0
   -0.1009    0.9947   -1.2210 H   0  0  0  0  0  0  0  0  0  0  0  0
   -0.2725    1.4368    0.4834 H   0  0  0  0  0  0  0  0  0  0  0  0
    0.9056   -0.6606    1.1511 H   0  0  0  0  0  0  0  0  0  0  0  0
    1.0350   -1.1357   -0.5650 H   0  0  0  0  0  0  0  0  0  0  0  0
    2.9154    0.0608    0.2941 H   0  0  0  0  0  0  0  0  0  0  0  0
   -2.3726    0.4583   -0.4956 H   0  0  0  0  0  0  0  0  0  0  0  0
   -1.5108   -1.0667   -0.8269 H   0  0  0  0  0  0  0  0  0  0  0  0
  1  4  1  0  0  0  0
  1  2  1  0  0  0  0
  1  7  1  0  0  0  0
  2  8  1  0  0  0  0
  3  2  1  0  0  0  0
  3 10  1  0  0  0  0
  4  5  1  0  0  0  0
  6  1  1  0  0  0  0
  9  2  1  0  0  0  0
 11  4  1  0  0  0  0
 12  4  1  0  0  0  0
M  END
>  <Charge>
0.0

>  <InChI>
1/C3H7ClO/c4-2-1-3-5/h5H,1-3H2

>  <Molecular Formula>
C_{3}H_{7}ClO

>  <Name>
3-CHLORO-1-PROPANOL

>  <SMILES>
C(CO)CCl

>  <logK (CHLOROFORM)>
4.28

>  <mean polarizability>
8.87

>  <dipole moment>
1.47542537933

$$$$
493
 OpenBabel08101817183D

 13 12  0  0  0  0  0  0  0  0999 V2000
    0.0385   -0.4459    0.0637 C   0  0  0  0  0  0  0  0  0  0  0  0
   -1.2097   -0.0616   -0.7261 C   0  0  0  0  0  0  0  0  0  0  0  0
   -1.9716    0.9911   -0.1219 O   0  0  0  0  0  0  0  0  0  0  0  0
    1.0491    0.6840    0.1739 C   0  0  0  0  0  0  0  0  0  0  0  0
    2.1615    0.2081    0.9437 O   0  0  0  0  0  0  0  0  0  0  0  0
   -0.2459   -0.7758    1.0767 H   0  0  0  0  0  0  0  0  0  0  0  0
    0.5163   -1.3112   -0.4229 H   0  0  0  0  0  0  0  0  0  0  0  0
   -0.9316    0.3228   -1.7184 H   0  0  0  0  0  0  0  0  0  0  0  0
   -1.8379   -0.9552   -0.8872 H   0  0  0  0  0  0  0  0  0  0  0  0
   -2.3007    0.6660    0.7305 H   0  0  0  0  0  0  0  0  0  0  0  0
    0.5821    1.5606    0.6529 H   0  0  0  0  0  0  0  0  0  0  0  0
    1.3750    0.9876   -0.8388 H   0  0  0  0  0  0  0  0  0  0  0  0
    2.7750    0.9462    1.0737 H   0  0  0  0  0  0  0  0  0  0  0  0
  1  4  1  0  0  0  0
  1  6  1  0  0  0  0
  2  3  1  0  0  0  0
  2  1  1  0  0  0  0
  3 10  1  0  0  0  0
  4 11  1  0  0  0  0
  4  5  1  0  0  0  0
  5 13  1  0  0  0  0
  7  1  1  0  0  0  0
  8  2  1  0  0  0  0
  9  2  1  0  0  0  0
 12  4  1  0  0  0  0
M  END
>  <Charge>
0.0

>  <InChI>
1/C3H8O2/c4-2-1-3-5/h4-5H,1-3H2

>  <Molecular Formula>
C_{3}H_{8}O_{2}

>  <Name>
1,3-PROPANEDIOL

>  <SMILES>
C(CO)CO

>  <logK (CHLOROFORM)>
5.13

>  <mean polarizability>
7.63

>  <dipole moment>
0.181725206206

$$$$
494
 OpenBabel08101817183D

  8  7  0  0  0  0  0  0  0  0999 V2000
    0.0814    0.3811    0.2444 C   0  0  0  0  0  0  0  0  0  0  0  0
    0.3769    1.7645    1.1332 S   0  0  0  0  0  0  0  0  0  0  0  0
   -1.1806   -0.0453   -0.0352 N   0  0  0  0  0  0  0  0  0  0  0  0
    1.0870   -0.3936   -0.2467 N   0  0  0  0  0  0  0  0  0  0  0  0
   -1.3819   -0.8798   -0.5718 H   0  0  0  0  0  0  0  0  0  0  0  0
   -1.9468    0.5104    0.3165 H   0  0  0  0  0  0  0  0  0  0  0  0
    0.9301   -1.2356   -0.7865 H   0  0  0  0  0  0  0  0  0  0  0  0
    2.0341   -0.1018   -0.0540 H   0  0  0  0  0  0  0  0  0  0  0  0
  1  2  2  0  0  0  0
  3  1  1  0  0  0  0
  3  6  1  0  0  0  0
  4  8  1  0  0  0  0
  4  1  1  0  0  0  0
  5  3  1  0  0  0  0
  7  4  1  0  0  0  0
M  END
>  <Charge>
0.0

>  <InChI>
1/CH4N2S/c2-1(3)4/h(H4,2,3,4)

>  <Molecular Formula>
CH_{4}N_{2}S

>  <Name>
THIOUREA

>  <SMILES>
C(=S)(N)N

>  <logK (CHLOROFORM)>
5.31

>  <mean polarizability>
8.44

>  <dipole moment>
5.16330259838

$$$$
495
 OpenBabel08101817183D

 41 40  0  0  0  0  0  0  0  0999 V2000
    0.0846    3.8804   -1.5900 C   0  0  0  0  0  0  0  0  0  0  0  0
   -0.5942    3.6523   -0.2383 C   0  0  0  0  0  0  0  0  0  0  0  0
   -0.1736    2.3585    0.4728 C   0  0  0  0  0  0  0  0  0  0  0  0
   -0.5796    1.0802   -0.2719 C   0  0  0  0  0  0  0  0  0  0  0  0
   -0.2965   -0.4377    0.7218 P   0  0  0  0  0  0  0  0  0  0  0  0
   -0.9568   -0.3861    2.0676 O   0  0  0  0  0  0  0  0  0  0  0  0
   -0.8516   -1.8177   -0.3581 C   0  0  0  0  0  0  0  0  0  0  0  0
   -2.3772   -1.9635   -0.4939 C   0  0  0  0  0  0  0  0  0  0  0  0
   -3.0548   -2.5885    0.7295 C   0  0  0  0  0  0  0  0  0  0  0  0
   -4.5666   -2.7248    0.5548 C   0  0  0  0  0  0  0  0  0  0  0  0
    1.5242   -0.6424    0.8547 C   0  0  0  0  0  0  0  0  0  0  0  0
    2.3535   -0.6476   -0.4351 C   0  0  0  0  0  0  0  0  0  0  0  0
    3.8510   -0.9086   -0.2058 C   0  0  0  0  0  0  0  0  0  0  0  0
    4.5715    0.1902    0.5761 C   0  0  0  0  0  0  0  0  0  0  0  0
    1.1802    3.8855   -1.4863 H   0  0  0  0  0  0  0  0  0  0  0  0
   -0.2109    4.8441   -2.0262 H   0  0  0  0  0  0  0  0  0  0  0  0
   -0.1767    3.1000   -2.3183 H   0  0  0  0  0  0  0  0  0  0  0  0
   -0.3698    4.5008    0.4265 H   0  0  0  0  0  0  0  0  0  0  0  0
   -1.6890    3.6502   -0.3688 H   0  0  0  0  0  0  0  0  0  0  0  0
   -0.6201    2.3305    1.4775 H   0  0  0  0  0  0  0  0  0  0  0  0
    0.9195    2.3710    0.6198 H   0  0  0  0  0  0  0  0  0  0  0  0
   -1.6605    1.1015   -0.4875 H   0  0  0  0  0  0  0  0  0  0  0  0
   -0.0617    0.9828   -1.2381 H   0  0  0  0  0  0  0  0  0  0  0  0
   -0.3857   -1.6710   -1.3451 H   0  0  0  0  0  0  0  0  0  0  0  0
   -0.4206   -2.7413    0.0616 H   0  0  0  0  0  0  0  0  0  0  0  0
   -2.5907   -2.5815   -1.3816 H   0  0  0  0  0  0  0  0  0  0  0  0
   -2.8344   -0.9812   -0.7005 H   0  0  0  0  0  0  0  0  0  0  0  0
   -2.8229   -1.9816    1.6161 H   0  0  0  0  0  0  0  0  0  0  0  0
   -2.6122   -3.5825    0.9101 H   0  0  0  0  0  0  0  0  0  0  0  0
   -4.8178   -3.3450   -0.3189 H   0  0  0  0  0  0  0  0  0  0  0  0
   -5.0395   -1.7423    0.4085 H   0  0  0  0  0  0  0  0  0  0  0  0
   -5.0314   -3.1869    1.4360 H   0  0  0  0  0  0  0  0  0  0  0  0
    1.6605   -1.5856    1.4089 H   0  0  0  0  0  0  0  0  0  0  0  0
    1.8481    0.1572    1.5378 H   0  0  0  0  0  0  0  0  0  0  0  0
    1.9671   -1.4178   -1.1200 H   0  0  0  0  0  0  0  0  0  0  0  0
    2.2370    0.3161   -0.9574 H   0  0  0  0  0  0  0  0  0  0  0  0
    3.9707   -1.8729    0.3142 H   0  0  0  0  0  0  0  0  0  0  0  0
    4.3356   -1.0299   -1.1871 H   0  0  0  0  0  0  0  0  0  0  0  0
    4.4769    1.1626    0.0709 H   0  0  0  0  0  0  0  0  0  0  0  0
    5.6429   -0.0309    0.6705 H   0  0  0  0  0  0  0  0  0  0  0  0
    4.1717    0.3026    1.5930 H   0  0  0  0  0  0  0  0  0  0  0  0
  1 15  1  0  0  0  0
  1  2  1  0  0  0  0
  2 18  1  0  0  0  0
  2  3  1  0  0  0  0
  3 21  1  0  0  0  0
  3 20  1  0  0  0  0
  4  3  1  0  0  0  0
  4  5  1  0  0  0  0
  5 11  1  0  0  0  0
  5  6  2  0  0  0  0
  7 25  1  0  0  0  0
  7  5  1  0  0  0  0
  8  7  1  0  0  0  0
  8  9  1  0  0  0  0
  9 29  1  0  0  0  0
  9 28  1  0  0  0  0
 10  9  1  0  0  0  0
 10 32  1  0  0  0  0
 11 33  1  0  0  0  0
 11 34  1  0  0  0  0
 12 13  1  0  0  0  0
 12 11  1  0  0  0  0
 13 37  1  0  0  0  0
 13 14  1  0  0  0  0
 14 40  1  0  0  0  0
 14 41  1  0  0  0  0
 16  1  1  0  0  0  0
 17  1  1  0  0  0  0
 19  2  1  0  0  0  0
 22  4  1  0  0  0  0
 23  4  1  0  0  0  0
 24  7  1  0  0  0  0
 26  8  1  0  0  0  0
 27  8  1  0  0  0  0
 30 10  1  0  0  0  0
 31 10  1  0  0  0  0
 35 12  1  0  0  0  0
 36 12  1  0  0  0  0
 38 13  1  0  0  0  0
 39 14  1  0  0  0  0
M  END
>  <Charge>
0.0

>  <InChI>
1/C12H27OP/c1-4-7-10-14(13,11-8-5-2)12-9-6-3/h4-12H2,1-3H3

>  <Molecular Formula>
C_{12}H_{27}OP

>  <Name>
TRIBUTYLPHOSPHINE OXIDE

>  <SMILES>
CCCCP(=O)(CCCC)CCCC

>  <logK (CHLOROFORM)>
11.21

>  <dipole moment>
3.91995703899

>  <mean polarizability>
27.14

$$$$
496
 OpenBabel08101817183D

 18 19  0  0  0  0  0  0  0  0999 V2000
   -2.3082   -1.1168   -0.1781 C   0  0  0  0  0  0  0  0  0  0  0  0
   -2.5324    0.2790   -0.2367 C   0  0  0  0  0  0  0  0  0  0  0  0
   -1.4743    1.1598   -0.1652 C   0  0  0  0  0  0  0  0  0  0  0  0
   -0.1428    0.6851   -0.0318 C   0  0  0  0  0  0  0  0  0  0  0  0
    0.9647    1.5688    0.0442 C   0  0  0  0  0  0  0  0  0  0  0  0
    2.2390    1.0633    0.1733 C   0  0  0  0  0  0  0  0  0  0  0  0
    2.4802   -0.3291    0.2334 C   0  0  0  0  0  0  0  0  0  0  0  0
    1.4170   -1.2015    0.1612 C   0  0  0  0  0  0  0  0  0  0  0  0
    0.0847   -0.7312    0.0278 C   0  0  0  0  0  0  0  0  0  0  0  0
   -1.0269   -1.6091   -0.0487 C   0  0  0  0  0  0  0  0  0  0  0  0
    3.6006    2.1485    0.2666 Cl  0  0  0  0  0  0  0  0  0  0  0  0
   -3.1538   -1.8020   -0.2358 H   0  0  0  0  0  0  0  0  0  0  0  0
   -3.5494    0.6575   -0.3392 H   0  0  0  0  0  0  0  0  0  0  0  0
   -1.6465    2.2362   -0.2104 H   0  0  0  0  0  0  0  0  0  0  0  0
    0.8017    2.6451   -0.0002 H   0  0  0  0  0  0  0  0  0  0  0  0
    3.5013   -0.6919    0.3357 H   0  0  0  0  0  0  0  0  0  0  0  0
    1.5950   -2.2770    0.2068 H   0  0  0  0  0  0  0  0  0  0  0  0
   -0.8498   -2.6849   -0.0030 H   0  0  0  0  0  0  0  0  0  0  0  0
  1 10  1  0  0  0  0
  2  1  2  0  0  0  0
  2  3  1  0  0  0  0
  3  4  2  0  0  0  0
  4  9  1  0  0  0  0
  4  5  1  0  0  0  0
  5  6  2  0  0  0  0
  6  7  1  0  0  0  0
  6 11  1  0  0  0  0
  7 16  1  0  0  0  0
  8 17  1  0  0  0  0
  8  7  2  0  0  0  0
  9  8  1  0  0  0  0
 10 18  1  0  0  0  0
 10  9  2  0  0  0  0
 12  1  1  0  0  0  0
 13  2  1  0  0  0  0
 14  3  1  0  0  0  0
 15  5  1  0  0  0  0
M  END
>  <Charge>
0.0

>  <InChI>
1/C10H7Cl/c11-10-6-5-8-3-1-2-4-9(8)7-10/h1-7H

>  <Molecular Formula>
C_{10}H_{7}Cl

>  <Name>
2-CHLORNAPHTHALEN

>  <SMILES>
c1ccc2cc(ccc2c1)Cl

>  <logK (CHLOROFORM)>
6.62

>  <mean polarizability>
20.58

>  <dipole moment>
1.77739786033

$$$$
497
 OpenBabel08101817183D

 18 18  0  0  0  0  0  0  0  0999 V2000
    2.6939   -0.2627   -0.5455 C   0  0  0  0  0  0  0  0  0  0  0  0
    1.6407    0.5748   -0.0720 O   0  0  0  0  0  0  0  0  0  0  0  0
    0.3782    0.0666   -0.0400 C   0  0  0  0  0  0  0  0  0  0  0  0
    0.0547   -1.2359   -0.4473 C   0  0  0  0  0  0  0  0  0  0  0  0
   -1.2681   -1.6745   -0.3804 C   0  0  0  0  0  0  0  0  0  0  0  0
   -2.2837   -0.8358    0.0876 C   0  0  0  0  0  0  0  0  0  0  0  0
   -1.9616    0.4542    0.4906 C   0  0  0  0  0  0  0  0  0  0  0  0
   -0.6428    0.9275    0.4366 C   0  0  0  0  0  0  0  0  0  0  0  0
   -0.3505    2.3092    0.8771 C   0  0  0  0  0  0  0  0  0  0  0  0
   -1.1999    3.0834    1.2939 O   0  0  0  0  0  0  0  0  0  0  0  0
    3.6030    0.3432   -0.4835 H   0  0  0  0  0  0  0  0  0  0  0  0
    2.8075   -1.1587    0.0836 H   0  0  0  0  0  0  0  0  0  0  0  0
    2.5264   -0.5655   -1.5904 H   0  0  0  0  0  0  0  0  0  0  0  0
    0.8244   -1.9101   -0.8157 H   0  0  0  0  0  0  0  0  0  0  0  0
   -1.5038   -2.6899   -0.7006 H   0  0  0  0  0  0  0  0  0  0  0  0
   -3.3124   -1.1904    0.1348 H   0  0  0  0  0  0  0  0  0  0  0  0
   -2.7206    1.1433    0.8624 H   0  0  0  0  0  0  0  0  0  0  0  0
    0.7147    2.6213    0.8089 H   0  0  0  0  0  0  0  0  0  0  0  0
  1 11  1  0  0  0  0
  1  2  1  0  0  0  0
  1 12  1  0  0  0  0
  2  3  1  0  0  0  0
  3  8  2  0  0  0  0
  4  5  2  0  0  0  0
  4  3  1  0  0  0  0
  5  6  1  0  0  0  0
  6 16  1  0  0  0  0
  6  7  2  0  0  0  0
  7 17  1  0  0  0  0
  8  7  1  0  0  0  0
  8  9  1  0  0  0  0
  9 10  2  0  0  0  0
 13  1  1  0  0  0  0
 14  4  1  0  0  0  0
 15  5  1  0  0  0  0
 18  9  1  0  0  0  0
M  END
>  <Charge>
0.0

>  <InChI>
1/C8H8O2/c1-10-8-5-3-2-4-7(8)6-9/h2-6H,1H3

>  <Molecular Formula>
C_{8}H_{8}O_{2}

>  <Name>
2-METHOXYBENZALDEHYDE

>  <SMILES>
COc1ccccc1C=O

>  <logK (CHLOROFORM)>
6.93

>  <dipole moment>
4.93312593811

>  <mean polarizability>
15.97

$$$$
498
 OpenBabel08101817183D

 17 17  0  0  0  0  0  0  0  0999 V2000
    2.4446   -0.1999   -0.0453 C   0  0  0  0  0  0  0  0  0  0  0  0
    1.7018   -0.8735    0.9267 C   0  0  0  0  0  0  0  0  0  0  0  0
    0.3323   -0.6396    1.0495 C   0  0  0  0  0  0  0  0  0  0  0  0
   -0.3142    0.2787    0.2098 C   0  0  0  0  0  0  0  0  0  0  0  0
    0.4403    0.9485   -0.7627 C   0  0  0  0  0  0  0  0  0  0  0  0
    1.8099    0.7116   -0.8903 C   0  0  0  0  0  0  0  0  0  0  0  0
   -1.8080    0.4839    0.3190 C   0  0  0  0  0  0  0  0  0  0  0  0
   -2.5444   -0.5296   -0.5419 C   0  0  0  0  0  0  0  0  0  0  0  0
   -3.3862   -1.2989   -0.1345 O   0  0  0  0  0  0  0  0  0  0  0  0
    3.5147   -0.3828   -0.1418 H   0  0  0  0  0  0  0  0  0  0  0  0
    2.1914   -1.5849    1.5921 H   0  0  0  0  0  0  0  0  0  0  0  0
   -0.2448   -1.1724    1.8071 H   0  0  0  0  0  0  0  0  0  0  0  0
   -0.0463    1.6728   -1.4186 H   0  0  0  0  0  0  0  0  0  0  0  0
    2.3841    1.2452   -1.6481 H   0  0  0  0  0  0  0  0  0  0  0  0
   -2.0761    1.4860   -0.0544 H   0  0  0  0  0  0  0  0  0  0  0  0
   -2.1655    0.3877    1.3516 H   0  0  0  0  0  0  0  0  0  0  0  0
   -2.2334   -0.5327   -1.6182 H   0  0  0  0  0  0  0  0  0  0  0  0
  1  2  2  0  0  0  0
  2  3  1  0  0  0  0
  2 11  1  0  0  0  0
  3 12  1  0  0  0  0
  4  7  1  0  0  0  0
  4  3  2  0  0  0  0
  5  4  1  0  0  0  0
  6  5  2  0  0  0  0
  6  1  1  0  0  0  0
  7 16  1  0  0  0  0
  8  9  2  0  0  0  0
  8  7  1  0  0  0  0
 10  1  1  0  0  0  0
 13  5  1  0  0  0  0
 14  6  1  0  0  0  0
 15  7  1  0  0  0  0
 17  8  1  0  0  0  0
M  END
>  <Charge>
0.0

>  <InChI>
1/C8H8O/c9-7-6-8-4-2-1-3-5-8/h1-5,7H,6H2

>  <Molecular Formula>
C_{8}H_{8}O

>  <Name>
PHENYLACETALDEHYDE

>  <SMILES>
c1ccc(cc1)CC=O

>  <logK (CHLOROFORM)>
5.32

>  <dipole moment>
2.75421191279

>  <mean polarizability>
14.66

$$$$
499
 OpenBabel08101817183D

 18 18  0  0  0  0  0  0  0  0999 V2000
    3.4559    0.2760   -0.0508 C   0  0  0  0  0  0  0  0  0  0  0  0
    2.0471    0.3117    0.4793 C   0  0  0  0  0  0  0  0  0  0  0  0
    1.7146    0.5994    1.6033 O   0  0  0  0  0  0  0  0  0  0  0  0
    1.1705   -0.0573   -0.5230 O   0  0  0  0  0  0  0  0  0  0  0  0
   -0.2054   -0.0934   -0.2637 C   0  0  0  0  0  0  0  0  0  0  0  0
   -0.8902    1.0078    0.2486 C   0  0  0  0  0  0  0  0  0  0  0  0
   -2.2749    0.9271    0.4027 C   0  0  0  0  0  0  0  0  0  0  0  0
   -2.9647   -0.2335    0.0457 C   0  0  0  0  0  0  0  0  0  0  0  0
   -2.2633   -1.3243   -0.4705 C   0  0  0  0  0  0  0  0  0  0  0  0
   -0.8780   -1.2586   -0.6258 C   0  0  0  0  0  0  0  0  0  0  0  0
    3.5341    0.8640   -0.9736 H   0  0  0  0  0  0  0  0  0  0  0  0
    3.7315   -0.7574   -0.2999 H   0  0  0  0  0  0  0  0  0  0  0  0
    4.1396    0.6651    0.7076 H   0  0  0  0  0  0  0  0  0  0  0  0
   -0.3493    1.9090    0.5279 H   0  0  0  0  0  0  0  0  0  0  0  0
   -2.8165    1.7830    0.8056 H   0  0  0  0  0  0  0  0  0  0  0  0
   -4.0462   -0.2860    0.1681 H   0  0  0  0  0  0  0  0  0  0  0  0
   -2.7925   -2.2338   -0.7546 H   0  0  0  0  0  0  0  0  0  0  0  0
   -0.3122   -2.0986   -1.0269 H   0  0  0  0  0  0  0  0  0  0  0  0
  1  2  1  0  0  0  0
  1 13  1  0  0  0  0
  2  3  2  0  0  0  0
  4  5  1  0  0  0  0
  4  2  1  0  0  0  0
  5  6  2  0  0  0  0
  6  7  1  0  0  0  0
  6 14  1  0  0  0  0
  7 15  1  0  0  0  0
  8 16  1  0  0  0  0
  8  7  2  0  0  0  0
  9  8  1  0  0  0  0
 10  9  2  0  0  0  0
 10  5  1  0  0  0  0
 11  1  1  0  0  0  0
 12  1  1  0  0  0  0
 17  9  1  0  0  0  0
 18 10  1  0  0  0  0
M  END
>  <Charge>
0.0

>  <InChI>
1/C8H8O2/c1-7(9)10-8-5-3-2-4-6-8/h2-6H,1H3

>  <Molecular Formula>
C_{8}H_{8}O_{2}

>  <Name>
PHENYL ACETATE

>  <SMILES>
CC(=O)Oc1ccccc1

>  <logK (CHLOROFORM)>
6.24

>  <dipole moment>
1.67666688895

>  <mean polarizability>
15.31

$$$$
500
 OpenBabel08101817183D

 24 24  0  0  0  0  0  0  0  0999 V2000
    2.4760   -2.4300    0.1726 C   0  0  0  0  0  0  0  0  0  0  0  0
    1.7083   -1.2188    0.3248 O   0  0  0  0  0  0  0  0  0  0  0  0
    1.6812   -0.4240   -0.7712 C   0  0  0  0  0  0  0  0  0  0  0  0
    2.3425   -0.6131   -1.7722 O   0  0  0  0  0  0  0  0  0  0  0  0
    0.8054    0.7748   -0.5603 C   0  0  0  0  0  0  0  0  0  0  0  0
    1.3640    2.0232   -0.8516 C   0  0  0  0  0  0  0  0  0  0  0  0
    0.6370    3.1940   -0.6430 C   0  0  0  0  0  0  0  0  0  0  0  0
   -0.6633    3.1249   -0.1416 C   0  0  0  0  0  0  0  0  0  0  0  0
   -1.2360    1.8851    0.1355 C   0  0  0  0  0  0  0  0  0  0  0  0
   -0.5172    0.7009   -0.0784 C   0  0  0  0  0  0  0  0  0  0  0  0
   -1.2040   -0.6187    0.0647 C   0  0  0  0  0  0  0  0  0  0  0  0
   -0.9887   -1.5915   -0.6315 O   0  0  0  0  0  0  0  0  0  0  0  0
   -2.1457   -0.5898    1.0447 O   0  0  0  0  0  0  0  0  0  0  0  0
   -2.9061   -1.8072    1.1826 C   0  0  0  0  0  0  0  0  0  0  0  0
    2.4445   -2.9209    1.1491 H   0  0  0  0  0  0  0  0  0  0  0  0
    3.5086   -2.2001   -0.1153 H   0  0  0  0  0  0  0  0  0  0  0  0
    2.0198   -3.0672   -0.5950 H   0  0  0  0  0  0  0  0  0  0  0  0
    2.3812    2.0609   -1.2400 H   0  0  0  0  0  0  0  0  0  0  0  0
    1.0859    4.1609   -0.8698 H   0  0  0  0  0  0  0  0  0  0  0  0
   -1.2374    4.0369    0.0206 H   0  0  0  0  0  0  0  0  0  0  0  0
   -2.2593    1.8215    0.5008 H   0  0  0  0  0  0  0  0  0  0  0  0
   -3.4967   -1.9943    0.2772 H   0  0  0  0  0  0  0  0  0  0  0  0
   -3.5605   -1.6470    2.0436 H   0  0  0  0  0  0  0  0  0  0  0  0
   -2.2395   -2.6604    1.3536 H   0  0  0  0  0  0  0  0  0  0  0  0
  1  2  1  0  0  0  0
  1 15  1  0  0  0  0
  3  5  1  0  0  0  0
  3  2  1  0  0  0  0
  4  3  2  0  0  0  0
  5 10  2  0  0  0  0
  6  7  2  0  0  0  0
  6  5  1  0  0  0  0
  7  8  1  0  0  0  0
  8 20  1  0  0  0  0
  8  9  2  0  0  0  0
  9 21  1  0  0  0  0
 10 11  1  0  0  0  0
 10  9  1  0  0  0  0
 11 13  1  0  0  0  0
 12 11  2  0  0  0  0
 13 14  1  0  0  0  0
 14 24  1  0  0  0  0
 14 23  1  0  0  0  0
 16  1  1  0  0  0  0
 17  1  1  0  0  0  0
 18  6  1  0  0  0  0
 19  7  1  0  0  0  0
 22 14  1  0  0  0  0
M  END
>  <Charge>
0.0

>  <InChI>
1/C10H10O4/c1-13-9(11)7-5-3-4-6-8(7)10(12)14-2/h3-6H,1-2H3

>  <Molecular Formula>
C_{10}H_{10}O_{4}

>  <Name>
DIMETHYL PHTHALATE

>  <SMILES>
COC(=O)c1ccccc1C(=O)OC

>  <logK (CHLOROFORM)>
8.68

>  <dipole moment>
3.2743885539

>  <mean polarizability>
20.59

$$$$
501
 OpenBabel08101817183D

 30 30  0  0  0  0  0  0  0  0999 V2000
   -4.6518    0.5313    0.0318 C   0  0  0  0  0  0  0  0  0  0  0  0
   -3.5845    0.4767    1.1090 C   0  0  0  0  0  0  0  0  0  0  0  0
   -2.5250   -0.4585    0.7624 O   0  0  0  0  0  0  0  0  0  0  0  0
   -1.5123    0.0499    0.0161 C   0  0  0  0  0  0  0  0  0  0  0  0
   -1.4483    1.2002   -0.3689 O   0  0  0  0  0  0  0  0  0  0  0  0
   -0.5065   -1.0065   -0.3263 C   0  0  0  0  0  0  0  0  0  0  0  0
   -0.9434   -2.2606   -0.7651 C   0  0  0  0  0  0  0  0  0  0  0  0
   -0.0310   -3.2086   -1.2294 C   0  0  0  0  0  0  0  0  0  0  0  0
    1.3302   -2.9075   -1.2575 C   0  0  0  0  0  0  0  0  0  0  0  0
    1.7765   -1.6628   -0.8125 C   0  0  0  0  0  0  0  0  0  0  0  0
    0.8704   -0.7096   -0.3366 C   0  0  0  0  0  0  0  0  0  0  0  0
    1.3848    0.5553    0.2808 C   0  0  0  0  0  0  0  0  0  0  0  0
    0.9976    1.0003    1.3427 O   0  0  0  0  0  0  0  0  0  0  0  0
    2.3727    1.1020   -0.4713 O   0  0  0  0  0  0  0  0  0  0  0  0
    2.9769    2.3130    0.0637 C   0  0  0  0  0  0  0  0  0  0  0  0
    4.1272    1.9922    0.9996 C   0  0  0  0  0  0  0  0  0  0  0  0
   -5.4656    1.1957    0.3539 H   0  0  0  0  0  0  0  0  0  0  0  0
   -4.2429    0.9243   -0.9064 H   0  0  0  0  0  0  0  0  0  0  0  0
   -5.0774   -0.4635   -0.1522 H   0  0  0  0  0  0  0  0  0  0  0  0
   -3.1353    1.4631    1.2793 H   0  0  0  0  0  0  0  0  0  0  0  0
   -3.9833    0.0880    2.0536 H   0  0  0  0  0  0  0  0  0  0  0  0
   -2.0097   -2.4810   -0.7560 H   0  0  0  0  0  0  0  0  0  0  0  0
   -0.3854   -4.1795   -1.5751 H   0  0  0  0  0  0  0  0  0  0  0  0
    2.0474   -3.6437   -1.6202 H   0  0  0  0  0  0  0  0  0  0  0  0
    2.8394   -1.4259   -0.8151 H   0  0  0  0  0  0  0  0  0  0  0  0
    2.1972    2.8955    0.5703 H   0  0  0  0  0  0  0  0  0  0  0  0
    3.3187    2.8546   -0.8263 H   0  0  0  0  0  0  0  0  0  0  0  0
    4.6000    2.9257    1.3352 H   0  0  0  0  0  0  0  0  0  0  0  0
    4.8903    1.3872    0.4934 H   0  0  0  0  0  0  0  0  0  0  0  0
    3.7730    1.4526    1.8859 H   0  0  0  0  0  0  0  0  0  0  0  0
  1 17  1  0  0  0  0
  1  2  1  0  0  0  0
  2 20  1  0  0  0  0
  2 21  1  0  0  0  0
  3  2  1  0  0  0  0
  4  3  1  0  0  0  0
  5  4  2  0  0  0  0
  6  4  1  0  0  0  0
  7 22  1  0  0  0  0
  7  6  2  0  0  0  0
  8  7  1  0  0  0  0
  9  8  2  0  0  0  0
  9 10  1  0  0  0  0
 10 11  2  0  0  0  0
 11  6  1  0  0  0  0
 11 12  1  0  0  0  0
 12 13  2  0  0  0  0
 14 15  1  0  0  0  0
 14 12  1  0  0  0  0
 15 26  1  0  0  0  0
 15 16  1  0  0  0  0
 16 28  1  0  0  0  0
 16 30  1  0  0  0  0
 18  1  1  0  0  0  0
 19  1  1  0  0  0  0
 23  8  1  0  0  0  0
 24  9  1  0  0  0  0
 25 10  1  0  0  0  0
 27 15  1  0  0  0  0
 29 16  1  0  0  0  0
M  END
>  <Charge>
0.0

>  <InChI>
1/C12H14O4/c1-3-15-11(13)9-7-5-6-8-10(9)12(14)16-4-2/h5-8H,3-4H2,1-2H3

>  <Molecular Formula>
C_{12}H_{14}O_{4}

>  <Name>
DIETHYL PHTHALATE

>  <SMILES>
CCOC(=O)c1ccccc1C(=O)OCC

>  <logK (CHLOROFORM)>
9.4

>  <dipole moment>
1.68482244436

>  <mean polarizability>
24.56

$$$$
502
 OpenBabel08101817183D

 16 16  0  0  0  0  0  0  0  0999 V2000
   -2.3036   -0.0634   -0.1549 C   0  0  0  0  0  0  0  0  0  0  0  0
   -1.6128    1.1022   -0.4909 C   0  0  0  0  0  0  0  0  0  0  0  0
   -0.2325    1.1770   -0.3005 C   0  0  0  0  0  0  0  0  0  0  0  0
    0.4687    0.0883    0.2280 C   0  0  0  0  0  0  0  0  0  0  0  0
   -0.2284   -1.0773    0.5624 C   0  0  0  0  0  0  0  0  0  0  0  0
   -1.6086   -1.1532    0.3724 C   0  0  0  0  0  0  0  0  0  0  0  0
    1.9745    0.1672    0.4273 C   0  0  0  0  0  0  0  0  0  0  0  0
    2.7254   -0.2811   -0.7448 C   0  0  0  0  0  0  0  0  0  0  0  0
    3.3167   -0.6384   -1.6793 N   0  0  0  0  0  0  0  0  0  0  0  0
   -3.3818   -0.1217   -0.3021 H   0  0  0  0  0  0  0  0  0  0  0  0
   -2.1503    1.9572   -0.9009 H   0  0  0  0  0  0  0  0  0  0  0  0
    0.3044    2.0890   -0.5665 H   0  0  0  0  0  0  0  0  0  0  0  0
    0.3118   -1.9320    0.9728 H   0  0  0  0  0  0  0  0  0  0  0  0
   -2.1430   -2.0650    0.6388 H   0  0  0  0  0  0  0  0  0  0  0  0
    2.2783    1.2003    0.6527 H   0  0  0  0  0  0  0  0  0  0  0  0
    2.2811   -0.4491    1.2855 H   0  0  0  0  0  0  0  0  0  0  0  0
  1  6  2  0  0  0  0
  2  3  2  0  0  0  0
  2  1  1  0  0  0  0
  3  4  1  0  0  0  0
  4  7  1  0  0  0  0
  4  5  2  0  0  0  0
  5 13  1  0  0  0  0
  6  5  1  0  0  0  0
  6 14  1  0  0  0  0
  7 15  1  0  0  0  0
  7 16  1  0  0  0  0
  8  7  1  0  0  0  0
  9  8  3  0  0  0  0
 10  1  1  0  0  0  0
 11  2  1  0  0  0  0
 12  3  1  0  0  0  0
M  END
>  <Charge>
0.0

>  <InChI>
1/C8H7N/c9-7-6-8-4-2-1-3-5-8/h1-5H,6H2

>  <Molecular Formula>
C_{8}H_{7}N

>  <Name>
BENZYL CYANIDE

>  <SMILES>
c1ccc(cc1)CC#N

>  <logK (CHLOROFORM)>
5.95

>  <mean polarizability>
14.31

>  <dipole moment>
4.09435602345

$$$$
503
 OpenBabel08101817183D

 14 14  0  0  0  0  0  0  0  0999 V2000
   -1.7239   -0.7337   -0.0683 C   0  0  0  0  0  0  0  0  0  0  0  0
   -1.7522    0.6391    0.1903 C   0  0  0  0  0  0  0  0  0  0  0  0
   -0.5650    1.3607    0.2779 C   0  0  0  0  0  0  0  0  0  0  0  0
    0.6693    0.7150    0.1072 C   0  0  0  0  0  0  0  0  0  0  0  0
    0.6981   -0.6778   -0.1552 C   0  0  0  0  0  0  0  0  0  0  0  0
   -0.5083   -1.3899   -0.2403 C   0  0  0  0  0  0  0  0  0  0  0  0
    1.9362   -1.3652   -0.3340 C   0  0  0  0  0  0  0  0  0  0  0  0
    2.9301   -1.9532   -0.4843 N   0  0  0  0  0  0  0  0  0  0  0  0
    1.8777    1.4690    0.2002 C   0  0  0  0  0  0  0  0  0  0  0  0
    2.8463    2.1104    0.2817 N   0  0  0  0  0  0  0  0  0  0  0  0
   -2.6538   -1.2966   -0.1365 H   0  0  0  0  0  0  0  0  0  0  0  0
   -2.7042    1.1508    0.3246 H   0  0  0  0  0  0  0  0  0  0  0  0
   -0.5755    2.4304    0.4790 H   0  0  0  0  0  0  0  0  0  0  0  0
   -0.4748   -2.4589   -0.4422 H   0  0  0  0  0  0  0  0  0  0  0  0
  1  2  2  0  0  0  0
  2  3  1  0  0  0  0
  2 12  1  0  0  0  0
  3 13  1  0  0  0  0
  4  9  1  0  0  0  0
  4  3  2  0  0  0  0
  5  4  1  0  0  0  0
  6  5  2  0  0  0  0
  6  1  1  0  0  0  0
  7  5  1  0  0  0  0
  8  7  3  0  0  0  0
  9 10  3  0  0  0  0
 11  1  1  0  0  0  0
 14  6  1  0  0  0  0
M  END
>  <Charge>
0.0

>  <InChI>
1/C8H4N2/c9-5-7-3-1-2-4-8(7)6-10/h1-4H

>  <Molecular Formula>
C_{8}H_{4}N_{2}

>  <Name>
PHTHALONITRILE

>  <SMILES>
c1ccc(c(c1)C#N)C#N

>  <logK (CHLOROFORM)>
8.2

>  <mean polarizability>
15.63

>  <dipole moment>
7.15619180583

$$$$
504
 OpenBabel08101817183D

 14 14  0  0  0  0  0  0  0  0999 V2000
   -0.1751    1.6979    0.0158 C   0  0  0  0  0  0  0  0  0  0  0  0
    1.0984    1.1343    0.0295 C   0  0  0  0  0  0  0  0  0  0  0  0
    1.2443   -0.2646    0.0165 C   0  0  0  0  0  0  0  0  0  0  0  0
    0.1126   -1.0914   -0.0100 C   0  0  0  0  0  0  0  0  0  0  0  0
   -1.1642   -0.5126   -0.0236 C   0  0  0  0  0  0  0  0  0  0  0  0
   -1.3068    0.8867   -0.0106 C   0  0  0  0  0  0  0  0  0  0  0  0
   -2.3227   -1.3496   -0.0507 C   0  0  0  0  0  0  0  0  0  0  0  0
   -3.2685   -2.0283   -0.0728 N   0  0  0  0  0  0  0  0  0  0  0  0
    2.5493   -0.8478    0.0302 C   0  0  0  0  0  0  0  0  0  0  0  0
    3.6139   -1.3195    0.0414 N   0  0  0  0  0  0  0  0  0  0  0  0
   -0.2868    2.7812    0.0258 H   0  0  0  0  0  0  0  0  0  0  0  0
    1.9858    1.7646    0.0501 H   0  0  0  0  0  0  0  0  0  0  0  0
    0.2242   -2.1737   -0.0201 H   0  0  0  0  0  0  0  0  0  0  0  0
   -2.3042    1.3228   -0.0215 H   0  0  0  0  0  0  0  0  0  0  0  0
  1 11  1  0  0  0  0
  1  2  2  0  0  0  0
  2 12  1  0  0  0  0
  3  2  1  0  0  0  0
  3  9  1  0  0  0  0
  4  3  2  0  0  0  0
  5  6  2  0  0  0  0
  5  4  1  0  0  0  0
  6  1  1  0  0  0  0
  7  5  1  0  0  0  0
  8  7  3  0  0  0  0
  9 10  3  0  0  0  0
 13  4  1  0  0  0  0
 14  6  1  0  0  0  0
M  END
>  <Charge>
0.0

>  <InChI>
1/C8H4N2/c9-5-7-2-1-3-8(4-7)6-10/h1-4H

>  <Molecular Formula>
C_{8}H_{4}N_{2}

>  <Name>
M-DICYANOBENZENE

>  <SMILES>
c1cc(cc(c1)C#N)C#N

>  <logK (CHLOROFORM)>
7.64

>  <mean polarizability>
15.86

>  <dipole moment>
4.33528674288

$$$$
505
 OpenBabel08101817183D

 14 14  0  0  0  0  0  0  0  0999 V2000
    0.7283    1.1931    0.1100 C   0  0  0  0  0  0  0  0  0  0  0  0
   -0.6577    1.2373    0.0508 C   0  0  0  0  0  0  0  0  0  0  0  0
   -1.3951    0.0445   -0.0596 C   0  0  0  0  0  0  0  0  0  0  0  0
   -0.7283   -1.1931   -0.1100 C   0  0  0  0  0  0  0  0  0  0  0  0
    0.6577   -1.2373   -0.0508 C   0  0  0  0  0  0  0  0  0  0  0  0
    1.3951   -0.0445    0.0596 C   0  0  0  0  0  0  0  0  0  0  0  0
    2.8212   -0.0899    0.1204 C   0  0  0  0  0  0  0  0  0  0  0  0
    3.9843   -0.1269    0.1700 N   0  0  0  0  0  0  0  0  0  0  0  0
   -2.8212    0.0899   -0.1204 C   0  0  0  0  0  0  0  0  0  0  0  0
   -3.9843    0.1269   -0.1700 N   0  0  0  0  0  0  0  0  0  0  0  0
    1.3053    2.1121    0.1954 H   0  0  0  0  0  0  0  0  0  0  0  0
   -1.1803    2.1913    0.0893 H   0  0  0  0  0  0  0  0  0  0  0  0
   -1.3053   -2.1121   -0.1954 H   0  0  0  0  0  0  0  0  0  0  0  0
    1.1803   -2.1913   -0.0893 H   0  0  0  0  0  0  0  0  0  0  0  0
  1 11  1  0  0  0  0
  2 12  1  0  0  0  0
  2  1  2  0  0  0  0
  3  2  1  0  0  0  0
  4  3  2  0  0  0  0
  4  5  1  0  0  0  0
  5  6  2  0  0  0  0
  6  1  1  0  0  0  0
  6  7  1  0  0  0  0
  7  8  3  0  0  0  0
  9  3  1  0  0  0  0
 10  9  3  0  0  0  0
 13  4  1  0  0  0  0
 14  5  1  0  0  0  0
M  END
>  <Charge>
0.0

>  <InChI>
1/C8H4N2/c9-5-7-1-2-8(6-10)4-3-7/h1-4H

>  <Molecular Formula>
C_{8}H_{4}N_{2}

>  <Name>
P-DICYANOBENZENE

>  <SMILES>
c1cc(ccc1C#N)C#N

>  <logK (CHLOROFORM)>
8.3

>  <mean polarizability>
16.31

>  <dipole moment>
5.30234016531e-10

$$$$
506
 OpenBabel08101817183D

 20 20  0  0  0  0  0  0  0  0999 V2000
    2.8616   -0.1788   -0.8661 C   0  0  0  0  0  0  0  0  0  0  0  0
    2.1572    0.3650    0.3864 C   0  0  0  0  0  0  0  0  0  0  0  0
    0.6557    0.2155    0.3354 C   0  0  0  0  0  0  0  0  0  0  0  0
    0.0195   -0.9375    0.8149 C   0  0  0  0  0  0  0  0  0  0  0  0
   -1.3614   -1.1000    0.7342 C   0  0  0  0  0  0  0  0  0  0  0  0
   -2.1673   -0.1016    0.1617 C   0  0  0  0  0  0  0  0  0  0  0  0
   -1.5397    1.0598   -0.3186 C   0  0  0  0  0  0  0  0  0  0  0  0
   -0.1574    1.2070   -0.2302 C   0  0  0  0  0  0  0  0  0  0  0  0
   -3.5590   -0.2292    0.1369 N   0  0  0  0  0  0  0  0  0  0  0  0
    3.9513   -0.0537   -0.7957 H   0  0  0  0  0  0  0  0  0  0  0  0
    2.5164    0.3435   -1.7691 H   0  0  0  0  0  0  0  0  0  0  0  0
    2.6497   -1.2483   -1.0019 H   0  0  0  0  0  0  0  0  0  0  0  0
    2.5460   -0.1564    1.2744 H   0  0  0  0  0  0  0  0  0  0  0  0
    2.4145    1.4276    0.5140 H   0  0  0  0  0  0  0  0  0  0  0  0
    0.6187   -1.7301    1.2685 H   0  0  0  0  0  0  0  0  0  0  0  0
   -1.8263   -2.0065    1.1271 H   0  0  0  0  0  0  0  0  0  0  0  0
   -2.1443    1.8568   -0.7561 H   0  0  0  0  0  0  0  0  0  0  0  0
    0.3011    2.1230   -0.6093 H   0  0  0  0  0  0  0  0  0  0  0  0
   -4.0307    0.3262   -0.5689 H   0  0  0  0  0  0  0  0  0  0  0  0
   -3.9056   -1.1823    0.1622 H   0  0  0  0  0  0  0  0  0  0  0  0
  1 10  1  0  0  0  0
  1  2  1  0  0  0  0
  2 14  1  0  0  0  0
  2 13  1  0  0  0  0
  3  2  1  0  0  0  0
  3  4  2  0  0  0  0
  4 15  1  0  0  0  0
  5  4  1  0  0  0  0
  5 16  1  0  0  0  0
  6  5  2  0  0  0  0
  7  8  2  0  0  0  0
  7  6  1  0  0  0  0
  8  3  1  0  0  0  0
  9  6  1  0  0  0  0
  9 20  1  0  0  0  0
 11  1  1  0  0  0  0
 12  1  1  0  0  0  0
 17  7  1  0  0  0  0
 18  8  1  0  0  0  0
 19  9  1  0  0  0  0
M  END
>  <Charge>
0.0

>  <InChI>
1/C8H11N/c1-2-7-3-5-8(9)6-4-7/h3-6H,2,9H2,1H3

>  <Molecular Formula>
C_{8}H_{11}N

>  <Name>
4-ETHYLANILINE

>  <SMILES>
CCc1ccc(cc1)N

>  <logK (CHLOROFORM)>
6.28

>  <mean polarizability>
16.31

>  <dipole moment>
1.43914348661

$$$$
507
 OpenBabel08101817183D

 23 23  0  0  0  0  0  0  0  0999 V2000
    2.8107    0.5028    0.6290 C   0  0  0  0  0  0  0  0  0  0  0  0
    2.5439   -0.4408   -0.5426 C   0  0  0  0  0  0  0  0  0  0  0  0
    1.3623   -1.4037   -0.3094 C   0  0  0  0  0  0  0  0  0  0  0  0
    0.0229   -0.7191   -0.1735 C   0  0  0  0  0  0  0  0  0  0  0  0
   -0.5982   -0.5506    1.0707 C   0  0  0  0  0  0  0  0  0  0  0  0
   -1.8239    0.1006    1.1989 C   0  0  0  0  0  0  0  0  0  0  0  0
   -2.4815    0.6141    0.0699 C   0  0  0  0  0  0  0  0  0  0  0  0
   -1.8694    0.4469   -1.1846 C   0  0  0  0  0  0  0  0  0  0  0  0
   -0.6450   -0.2055   -1.2952 C   0  0  0  0  0  0  0  0  0  0  0  0
   -3.7409    1.2104    0.1785 N   0  0  0  0  0  0  0  0  0  0  0  0
    3.6619    1.1652    0.4216 H   0  0  0  0  0  0  0  0  0  0  0  0
    1.9371    1.1344    0.8401 H   0  0  0  0  0  0  0  0  0  0  0  0
    3.0422   -0.0598    1.5457 H   0  0  0  0  0  0  0  0  0  0  0  0
    3.4458   -1.0386   -0.7487 H   0  0  0  0  0  0  0  0  0  0  0  0
    2.3501    0.1471   -1.4538 H   0  0  0  0  0  0  0  0  0  0  0  0
    1.5596   -1.9982    0.5968 H   0  0  0  0  0  0  0  0  0  0  0  0
    1.3233   -2.1183   -1.1468 H   0  0  0  0  0  0  0  0  0  0  0  0
   -0.1134   -0.9435    1.9668 H   0  0  0  0  0  0  0  0  0  0  0  0
   -2.2821    0.2073    2.1842 H   0  0  0  0  0  0  0  0  0  0  0  0
   -2.3672    0.8248   -2.0800 H   0  0  0  0  0  0  0  0  0  0  0  0
   -0.1988   -0.3238   -2.2851 H   0  0  0  0  0  0  0  0  0  0  0  0
   -3.9567    1.6001    1.0899 H   0  0  0  0  0  0  0  0  0  0  0  0
   -3.9825    1.8482   -0.5725 H   0  0  0  0  0  0  0  0  0  0  0  0
  1 12  1  0  0  0  0
  1 13  1  0  0  0  0
  2  3  1  0  0  0  0
  2  1  1  0  0  0  0
  3  4  1  0  0  0  0
  3 16  1  0  0  0  0
  4  5  2  0  0  0  0
  5  6  1  0  0  0  0
  5 18  1  0  0  0  0
  6 19  1  0  0  0  0
  7 10  1  0  0  0  0
  7  6  2  0  0  0  0
  8  7  1  0  0  0  0
  9  8  2  0  0  0  0
  9  4  1  0  0  0  0
 10 22  1  0  0  0  0
 11  1  1  0  0  0  0
 14  2  1  0  0  0  0
 15  2  1  0  0  0  0
 17  3  1  0  0  0  0
 20  8  1  0  0  0  0
 21  9  1  0  0  0  0
 23 10  1  0  0  0  0
M  END
>  <Charge>
0.0

>  <InChI>
1/C9H13N/c1-2-3-8-4-6-9(10)7-5-8/h4-7H,2-3,10H2,1H3

>  <Molecular Formula>
C_{9}H_{13}N

>  <Name>
4-PROPYLANILINE

>  <SMILES>
CCCc1ccc(cc1)N

>  <logK (CHLOROFORM)>
6.97

>  <dipole moment>
1.45699005449

>  <mean polarizability>
18.13

$$$$
508
 OpenBabel08101817183D

 23 23  0  0  0  0  0  0  0  0999 V2000
   -2.4059   -0.4996   -1.2724 C   0  0  0  0  0  0  0  0  0  0  0  0
   -1.7752    0.4311   -0.2240 C   0  0  0  0  0  0  0  0  0  0  0  0
   -2.4719    0.2690    1.1368 C   0  0  0  0  0  0  0  0  0  0  0  0
   -0.2716    0.2426   -0.1225 C   0  0  0  0  0  0  0  0  0  0  0  0
    0.2997   -0.9736    0.2814 C   0  0  0  0  0  0  0  0  0  0  0  0
    1.6777   -1.1432    0.3735 C   0  0  0  0  0  0  0  0  0  0  0  0
    2.5556   -0.0876    0.0608 C   0  0  0  0  0  0  0  0  0  0  0  0
    1.9933    1.1354   -0.3451 C   0  0  0  0  0  0  0  0  0  0  0  0
    0.6108    1.2853   -0.4311 C   0  0  0  0  0  0  0  0  0  0  0  0
    3.9225   -0.2503    0.1508 N   0  0  0  0  0  0  0  0  0  0  0  0
   -2.2846   -1.5548   -0.9875 H   0  0  0  0  0  0  0  0  0  0  0  0
   -1.9394   -0.3642   -2.2571 H   0  0  0  0  0  0  0  0  0  0  0  0
   -3.4835   -0.3039   -1.3714 H   0  0  0  0  0  0  0  0  0  0  0  0
   -1.9408    1.4685   -0.5595 H   0  0  0  0  0  0  0  0  0  0  0  0
   -2.0529    0.9569    1.8831 H   0  0  0  0  0  0  0  0  0  0  0  0
   -3.5499    0.4687    1.0505 H   0  0  0  0  0  0  0  0  0  0  0  0
   -2.3532   -0.7543    1.5217 H   0  0  0  0  0  0  0  0  0  0  0  0
   -0.3438   -1.8187    0.5334 H   0  0  0  0  0  0  0  0  0  0  0  0
    2.0864   -2.1045    0.6916 H   0  0  0  0  0  0  0  0  0  0  0  0
    2.6476    1.9732   -0.5945 H   0  0  0  0  0  0  0  0  0  0  0  0
    0.2053    2.2483   -0.7496 H   0  0  0  0  0  0  0  0  0  0  0  0
    4.3227   -1.1286    0.4411 H   0  0  0  0  0  0  0  0  0  0  0  0
    4.5513    0.5046   -0.0739 H   0  0  0  0  0  0  0  0  0  0  0  0
  1 11  1  0  0  0  0
  1  2  1  0  0  0  0
  2  4  1  0  0  0  0
  2  3  1  0  0  0  0
  3 17  1  0  0  0  0
  3 15  1  0  0  0  0
  4  5  2  0  0  0  0
  5  6  1  0  0  0  0
  5 18  1  0  0  0  0
  6 19  1  0  0  0  0
  7 10  1  0  0  0  0
  7  6  2  0  0  0  0
  8  7  1  0  0  0  0
  9  8  2  0  0  0  0
  9  4  1  0  0  0  0
 10 22  1  0  0  0  0
 12  1  1  0  0  0  0
 13  1  1  0  0  0  0
 14  2  1  0  0  0  0
 16  3  1  0  0  0  0
 20  8  1  0  0  0  0
 21  9  1  0  0  0  0
 23 10  1  0  0  0  0
M  END
>  <Charge>
0.0

>  <InChI>
1/C9H13N/c1-7(2)8-3-5-9(10)6-4-8/h3-7H,10H2,1-2H3

>  <Molecular Formula>
C_{9}H_{13}N

>  <Name>
4-ISOPROPYLANILINE

>  <SMILES>
CC(C)c1ccc(cc1)N

>  <logK (CHLOROFORM)>
6.71

>  <mean polarizability>
18.26

>  <dipole moment>
1.77039104286

$$$$
509
 OpenBabel08101817183D

 26 26  0  0  0  0  0  0  0  0999 V2000
   -3.8830   -0.5082    0.8594 C   0  0  0  0  0  0  0  0  0  0  0  0
   -3.2600    0.5580   -0.0441 C   0  0  0  0  0  0  0  0  0  0  0  0
   -1.7378    0.6913    0.0888 C   0  0  0  0  0  0  0  0  0  0  0  0
   -0.9472   -0.5357   -0.4019 C   0  0  0  0  0  0  0  0  0  0  0  0
    0.5479   -0.3540   -0.3056 C   0  0  0  0  0  0  0  0  0  0  0  0
    1.2580   -0.7346    0.8412 C   0  0  0  0  0  0  0  0  0  0  0  0
    2.6312   -0.5304    0.9554 C   0  0  0  0  0  0  0  0  0  0  0  0
    3.3539    0.0711   -0.0881 C   0  0  0  0  0  0  0  0  0  0  0  0
    2.6523    0.4520   -1.2441 C   0  0  0  0  0  0  0  0  0  0  0  0
    1.2790    0.2418   -1.3423 C   0  0  0  0  0  0  0  0  0  0  0  0
    4.7417    0.2210   -0.0096 N   0  0  0  0  0  0  0  0  0  0  0  0
   -3.6468   -0.3160    1.9164 H   0  0  0  0  0  0  0  0  0  0  0  0
   -4.9769   -0.5227    0.7613 H   0  0  0  0  0  0  0  0  0  0  0  0
   -3.5204   -1.5164    0.6171 H   0  0  0  0  0  0  0  0  0  0  0  0
   -3.7182    1.5330    0.1841 H   0  0  0  0  0  0  0  0  0  0  0  0
   -3.5133    0.3437   -1.0959 H   0  0  0  0  0  0  0  0  0  0  0  0
   -1.4751    0.8894    1.1415 H   0  0  0  0  0  0  0  0  0  0  0  0
   -1.3990    1.5724   -0.4787 H   0  0  0  0  0  0  0  0  0  0  0  0
   -1.2423   -1.4226    0.1788 H   0  0  0  0  0  0  0  0  0  0  0  0
   -1.2279   -0.7402   -1.4481 H   0  0  0  0  0  0  0  0  0  0  0  0
    0.7242   -1.2080    1.6682 H   0  0  0  0  0  0  0  0  0  0  0  0
    3.1546   -0.8471    1.8598 H   0  0  0  0  0  0  0  0  0  0  0  0
    3.1933    0.9094   -2.0750 H   0  0  0  0  0  0  0  0  0  0  0  0
    0.7623    0.5465   -2.2551 H   0  0  0  0  0  0  0  0  0  0  0  0
    5.1312    0.9470   -0.6014 H   0  0  0  0  0  0  0  0  0  0  0  0
    5.1184    0.2593    0.9315 H   0  0  0  0  0  0  0  0  0  0  0  0
  1 12  1  0  0  0  0
  2  3  1  0  0  0  0
  2 15  1  0  0  0  0
  2  1  1  0  0  0  0
  3 17  1  0  0  0  0
  4  5  1  0  0  0  0
  4  3  1  0  0  0  0
  4 19  1  0  0  0  0
  5  6  2  0  0  0  0
  6  7  1  0  0  0  0
  6 21  1  0  0  0  0
  7 22  1  0  0  0  0
  8 11  1  0  0  0  0
  8  7  2  0  0  0  0
  9  8  1  0  0  0  0
 10  9  2  0  0  0  0
 10  5  1  0  0  0  0
 11 26  1  0  0  0  0
 13  1  1  0  0  0  0
 14  1  1  0  0  0  0
 16  2  1  0  0  0  0
 18  3  1  0  0  0  0
 20  4  1  0  0  0  0
 23  9  1  0  0  0  0
 24 10  1  0  0  0  0
 25 11  1  0  0  0  0
M  END
>  <Charge>
0.0

>  <InChI>
1/C10H15N/c1-2-3-4-9-5-7-10(11)8-6-9/h5-8H,2-4,11H2,1H3

>  <Molecular Formula>
C_{10}H_{15}N

>  <Name>
4-BUTYLANILINE

>  <SMILES>
CCCCc1ccc(cc1)N

>  <logK (CHLOROFORM)>
7.22

>  <dipole moment>
1.47130391093

>  <mean polarizability>
20.27

$$$$
510
 OpenBabel08101817183D

 14 14  0  0  0  0  0  0  0  0999 V2000
   -0.4211    1.1441   -0.1815 C   0  0  0  0  0  0  0  0  0  0  0  0
    0.9542    1.3365   -0.2759 C   0  0  0  0  0  0  0  0  0  0  0  0
    1.8205    0.2538   -0.1248 C   0  0  0  0  0  0  0  0  0  0  0  0
    1.3100   -1.0208    0.1207 C   0  0  0  0  0  0  0  0  0  0  0  0
   -0.0655   -1.2118    0.2149 C   0  0  0  0  0  0  0  0  0  0  0  0
   -0.9589   -0.1336    0.0657 C   0  0  0  0  0  0  0  0  0  0  0  0
   -2.3197   -0.3234    0.1591 N   0  0  0  0  0  0  0  0  0  0  0  0
    3.5465    0.4944   -0.2431 Cl  0  0  0  0  0  0  0  0  0  0  0  0
   -1.0900    1.9979   -0.3013 H   0  0  0  0  0  0  0  0  0  0  0  0
    1.3556    2.3303   -0.4675 H   0  0  0  0  0  0  0  0  0  0  0  0
    1.9887   -1.8641    0.2383 H   0  0  0  0  0  0  0  0  0  0  0  0
   -0.4545   -2.2131    0.4072 H   0  0  0  0  0  0  0  0  0  0  0  0
   -2.7058   -1.2377    0.3358 H   0  0  0  0  0  0  0  0  0  0  0  0
   -2.9602    0.4477    0.0522 H   0  0  0  0  0  0  0  0  0  0  0  0
  1  6  1  0  0  0  0
  2  1  2  0  0  0  0
  2  3  1  0  0  0  0
  3  4  2  0  0  0  0
  4  5  1  0  0  0  0
  4 11  1  0  0  0  0
  5 12  1  0  0  0  0
  6  7  1  0  0  0  0
  6  5  2  0  0  0  0
  7 13  1  0  0  0  0
  8  3  1  0  0  0  0
  9  1  1  0  0  0  0
 10  2  1  0  0  0  0
 14  7  1  0  0  0  0
M  END
>  <Charge>
0.0

>  <InChI>
1/C6H6ClN/c7-5-1-3-6(8)4-2-5/h1-4H,8H2

>  <Molecular Formula>
C_{6}H_{6}ClN

>  <Name>
4-CHLOROANILINE

>  <SMILES>
c1cc(ccc1N)Cl

>  <logK (CARBON TETRACHLORIDE)>
5.64

>  <logK (CHLOROFORM)>
6.42

>  <mean polarizability>
14.49

>  <dipole moment>
3.87667480401

$$$$
511
 OpenBabel08101817183D

 16 16  0  0  0  0  0  0  0  0999 V2000
   -1.8640   -0.9139    0.0874 C   0  0  0  0  0  0  0  0  0  0  0  0
   -2.0166    0.4220   -0.3262 C   0  0  0  0  0  0  0  0  0  0  0  0
   -0.8926    1.2158   -0.4508 C   0  0  0  0  0  0  0  0  0  0  0  0
    0.3853    0.7048   -0.1712 C   0  0  0  0  0  0  0  0  0  0  0  0
    0.5619   -0.6471    0.2495 C   0  0  0  0  0  0  0  0  0  0  0  0
   -0.6149   -1.4316    0.3666 C   0  0  0  0  0  0  0  0  0  0  0  0
    1.7676   -1.1951    0.5327 N   0  0  0  0  0  0  0  0  0  0  0  0
    1.5093    1.6094   -0.3300 N   0  0  0  0  0  0  0  0  0  0  0  0
    2.6616    1.1809   -0.0884 O   0  0  0  0  0  0  0  0  0  0  0  0
    1.2934    2.7673   -0.6980 O   0  0  0  0  0  0  0  0  0  0  0  0
   -2.7402   -1.5545    0.1909 H   0  0  0  0  0  0  0  0  0  0  0  0
   -3.0032    0.8259   -0.5445 H   0  0  0  0  0  0  0  0  0  0  0  0
   -0.9567    2.2545   -0.7663 H   0  0  0  0  0  0  0  0  0  0  0  0
   -0.5093   -2.4693    0.6864 H   0  0  0  0  0  0  0  0  0  0  0  0
    1.8258   -2.1604    0.8234 H   0  0  0  0  0  0  0  0  0  0  0  0
    2.5926   -0.6086    0.4383 H   0  0  0  0  0  0  0  0  0  0  0  0
  1 11  1  0  0  0  0
  1  6  2  0  0  0  0
  2  1  1  0  0  0  0
  3  2  2  0  0  0  0
  3  4  1  0  0  0  0
  4  5  2  0  0  0  0
  5  6  1  0  0  0  0
  5  7  1  0  0  0  0
  6 14  1  0  0  0  0
  7 15  1  0  0  0  0
  8  4  1  0  0  0  0
  8  9  2  0  0  0  0
 10  8  2  0  0  0  0
 12  2  1  0  0  0  0
 13  3  1  0  0  0  0
 16  7  1  0  0  0  0
M  END
>  <Charge>
0.0

>  <InChI>
1/C6H6N2O2/c7-5-3-1-2-4-6(5)8(9)10/h1-4H,7H2

>  <Molecular Formula>
C_{6}H_{6}N_{2}O_{2}

>  <Name>
2-NITROANILINE

>  <SMILES>
c1ccc(c(c1)N)[N+](=O)[O-]

>  <logK (CHLOROFORM)>
7.24

>  <mean polarizability>
15.39

>  <dipole moment>
4.78872263658

$$$$
512
 OpenBabel08101817183D

 16 16  0  0  0  0  0  0  0  0999 V2000
    0.0643    1.7529   -0.5395 C   0  0  0  0  0  0  0  0  0  0  0  0
   -1.1254    1.2347   -0.0360 C   0  0  0  0  0  0  0  0  0  0  0  0
   -1.2084   -0.1092    0.3871 C   0  0  0  0  0  0  0  0  0  0  0  0
   -0.0582   -0.9117    0.2875 C   0  0  0  0  0  0  0  0  0  0  0  0
    1.1122   -0.3605   -0.2201 C   0  0  0  0  0  0  0  0  0  0  0  0
    1.2102    0.9638   -0.6419 C   0  0  0  0  0  0  0  0  0  0  0  0
    2.3098   -1.2320   -0.3134 N   0  0  0  0  0  0  0  0  0  0  0  0
    2.2002   -2.4010    0.0661 O   0  0  0  0  0  0  0  0  0  0  0  0
    3.3440   -0.7358   -0.7643 O   0  0  0  0  0  0  0  0  0  0  0  0
   -2.3808   -0.6230    0.8839 N   0  0  0  0  0  0  0  0  0  0  0  0
    0.0983    2.7943   -0.8586 H   0  0  0  0  0  0  0  0  0  0  0  0
   -2.0081    1.8723    0.0341 H   0  0  0  0  0  0  0  0  0  0  0  0
   -0.0611   -1.9549    0.5981 H   0  0  0  0  0  0  0  0  0  0  0  0
    2.1501    1.3440   -1.0310 H   0  0  0  0  0  0  0  0  0  0  0  0
   -3.2078   -0.0513    0.9597 H   0  0  0  0  0  0  0  0  0  0  0  0
   -2.4394   -1.5826    1.1885 H   0  0  0  0  0  0  0  0  0  0  0  0
  1  2  1  0  0  0  0
  2 12  1  0  0  0  0
  2  3  2  0  0  0  0
  3 10  1  0  0  0  0
  4  3  1  0  0  0  0
  4 13  1  0  0  0  0
  5  4  2  0  0  0  0
  6  1  2  0  0  0  0
  6  5  1  0  0  0  0
  7  5  1  0  0  0  0
  7  8  2  0  0  0  0
  9  7  2  0  0  0  0
 10 15  1  0  0  0  0
 10 16  1  0  0  0  0
 11  1  1  0  0  0  0
 14  6  1  0  0  0  0
M  END
>  <Charge>
0.0

>  <InChI>
1/C6H6N2O2/c7-5-2-1-3-6(4-5)8(9)10/h1-4H,7H2

>  <Molecular Formula>
C_{6}H_{6}N_{2}O_{2}

>  <Name>
3-NITROANILINE

>  <SMILES>
c1cc(cc(c1)[N+](=O)[O-])N

>  <logK (CHLOROFORM)>
8.09

>  <mean polarizability>
15.19

>  <dipole moment>
6.04755770064

$$$$
513
 OpenBabel08101817183D

 16 16  0  0  0  0  0  0  0  0999 V2000
   -0.6521   -0.8967   -0.8696 C   0  0  0  0  0  0  0  0  0  0  0  0
    0.7273   -0.9112   -0.7541 C   0  0  0  0  0  0  0  0  0  0  0  0
    1.3584   -0.0149    0.1132 C   0  0  0  0  0  0  0  0  0  0  0  0
    0.6119    0.8965    0.8657 C   0  0  0  0  0  0  0  0  0  0  0  0
   -0.7676    0.9120    0.7512 C   0  0  0  0  0  0  0  0  0  0  0  0
   -1.4283    0.0155   -0.1191 C   0  0  0  0  0  0  0  0  0  0  0  0
   -2.7906    0.0305   -0.2327 N   0  0  0  0  0  0  0  0  0  0  0  0
    2.8135   -0.0305    0.2347 N   0  0  0  0  0  0  0  0  0  0  0  0
    3.4422   -0.8510   -0.4470 O   0  0  0  0  0  0  0  0  0  0  0  0
    3.3381    0.7774    1.0124 O   0  0  0  0  0  0  0  0  0  0  0  0
   -1.1473   -1.5949   -1.5456 H   0  0  0  0  0  0  0  0  0  0  0  0
    1.3350   -1.6086   -1.3265 H   0  0  0  0  0  0  0  0  0  0  0  0
    1.1313    1.5817    1.5321 H   0  0  0  0  0  0  0  0  0  0  0  0
   -1.3527    1.6221    1.3371 H   0  0  0  0  0  0  0  0  0  0  0  0
   -3.2686   -0.6070   -0.8520 H   0  0  0  0  0  0  0  0  0  0  0  0
   -3.3506    0.6790    0.3003 H   0  0  0  0  0  0  0  0  0  0  0  0
  1  2  2  0  0  0  0
  1  6  1  0  0  0  0
  2  3  1  0  0  0  0
  3  8  1  0  0  0  0
  3  4  2  0  0  0  0
  4 13  1  0  0  0  0
  5  4  1  0  0  0  0
  5 14  1  0  0  0  0
  6  5  2  0  0  0  0
  7  6  1  0  0  0  0
  7 16  1  0  0  0  0
  8 10  2  0  0  0  0
  9  8  2  0  0  0  0
 11  1  1  0  0  0  0
 12  2  1  0  0  0  0
 15  7  1  0  0  0  0
M  END
>  <Charge>
0.0

>  <InChI>
1/C6H6N2O2/c7-5-1-3-6(4-2-5)8(9)10/h1-4H,7H2

>  <Molecular Formula>
C_{6}H_{6}N_{2}O_{2}

>  <Name>
4-NITROANILINE

>  <SMILES>
c1cc(ccc1N)[N+](=O)[O-]

>  <logK (CHLOROFORM)>
8.8

>  <mean polarizability>
16.09

>  <dipole moment>
7.76439927327

$$$$
514
 OpenBabel08101817183D

 19 19  0  0  0  0  0  0  0  0999 V2000
    2.6585   -1.2192    0.0688 C   0  0  0  0  0  0  0  0  0  0  0  0
    2.1545    0.2115    0.0028 C   0  0  0  0  0  0  0  0  0  0  0  0
    2.9466    1.1447   -0.0338 O   0  0  0  0  0  0  0  0  0  0  0  0
    0.6742    0.4563   -0.0164 C   0  0  0  0  0  0  0  0  0  0  0  0
    0.2196    1.7832   -0.0780 C   0  0  0  0  0  0  0  0  0  0  0  0
   -1.1493    2.0338   -0.0972 C   0  0  0  0  0  0  0  0  0  0  0  0
   -2.0707    0.9888   -0.0560 C   0  0  0  0  0  0  0  0  0  0  0  0
   -1.6334   -0.3483    0.0061 C   0  0  0  0  0  0  0  0  0  0  0  0
   -0.2487   -0.5966    0.0252 C   0  0  0  0  0  0  0  0  0  0  0  0
   -2.5382   -1.3860    0.0469 N   0  0  0  0  0  0  0  0  0  0  0  0
    3.7523   -1.2071    0.0743 H   0  0  0  0  0  0  0  0  0  0  0  0
    2.2947   -1.7240    0.9752 H   0  0  0  0  0  0  0  0  0  0  0  0
    2.3042   -1.8024   -0.7931 H   0  0  0  0  0  0  0  0  0  0  0  0
    0.9535    2.5860   -0.1096 H   0  0  0  0  0  0  0  0  0  0  0  0
   -1.5145    3.0602   -0.1450 H   0  0  0  0  0  0  0  0  0  0  0  0
   -3.1410    1.2026   -0.0717 H   0  0  0  0  0  0  0  0  0  0  0  0
    0.0984   -1.6293    0.0732 H   0  0  0  0  0  0  0  0  0  0  0  0
   -2.2299   -2.3446    0.0932 H   0  0  0  0  0  0  0  0  0  0  0  0
   -3.5307   -1.2096    0.0351 H   0  0  0  0  0  0  0  0  0  0  0  0
  1 11  1  0  0  0  0
  1 12  1  0  0  0  0
  2  1  1  0  0  0  0
  3  2  2  0  0  0  0
  4  2  1  0  0  0  0
  4  9  2  0  0  0  0
  5  4  1  0  0  0  0
  6  5  2  0  0  0  0
  6  7  1  0  0  0  0
  7  8  2  0  0  0  0
  8  9  1  0  0  0  0
  8 10  1  0  0  0  0
  9 17  1  0  0  0  0
 10 18  1  0  0  0  0
 13  1  1  0  0  0  0
 14  5  1  0  0  0  0
 15  6  1  0  0  0  0
 16  7  1  0  0  0  0
 19 10  1  0  0  0  0
M  END
>  <Charge>
0.0

>  <InChI>
1/C8H9NO/c1-6(10)7-3-2-4-8(9)5-7/h2-5H,9H2,1H3

>  <Molecular Formula>
C_{8}H_{9}NO

>  <Name>
3'-AMINOACETOPHENONE

>  <SMILES>
CC(=O)c1cccc(c1)N

>  <logK (CHLOROFORM)>
8.13

>  <mean polarizability>
16.78

>  <dipole moment>
5.13851730957

$$$$
515
 OpenBabel08101817183D

 19 19  0  0  0  0  0  0  0  0999 V2000
    3.0627    0.8396   -0.3322 C   0  0  0  0  0  0  0  0  0  0  0  0
    2.2440   -0.3565    0.1273 C   0  0  0  0  0  0  0  0  0  0  0  0
    2.8081   -1.3776    0.5146 O   0  0  0  0  0  0  0  0  0  0  0  0
    0.7629   -0.2583    0.0956 C   0  0  0  0  0  0  0  0  0  0  0  0
    0.0736    0.8880   -0.3388 C   0  0  0  0  0  0  0  0  0  0  0  0
   -1.3131    0.9366   -0.3520 C   0  0  0  0  0  0  0  0  0  0  0  0
   -2.0713   -0.1736    0.0741 C   0  0  0  0  0  0  0  0  0  0  0  0
   -1.3843   -1.3283    0.5119 C   0  0  0  0  0  0  0  0  0  0  0  0
   -0.0020   -1.3620    0.5194 C   0  0  0  0  0  0  0  0  0  0  0  0
   -3.4408   -0.1360    0.0647 N   0  0  0  0  0  0  0  0  0  0  0  0
    4.1247    0.5928   -0.2424 H   0  0  0  0  0  0  0  0  0  0  0  0
    2.8432    1.7281    0.2770 H   0  0  0  0  0  0  0  0  0  0  0  0
    2.8365    1.0975   -1.3768 H   0  0  0  0  0  0  0  0  0  0  0  0
    0.6278    1.7641   -0.6750 H   0  0  0  0  0  0  0  0  0  0  0  0
   -1.8258    1.8376   -0.6936 H   0  0  0  0  0  0  0  0  0  0  0  0
   -1.9560   -2.1966    0.8452 H   0  0  0  0  0  0  0  0  0  0  0  0
    0.5310   -2.2510    0.8564 H   0  0  0  0  0  0  0  0  0  0  0  0
   -3.9379    0.6851   -0.2457 H   0  0  0  0  0  0  0  0  0  0  0  0
   -3.9836   -0.9297    0.3702 H   0  0  0  0  0  0  0  0  0  0  0  0
  1 11  1  0  0  0  0
  1  2  1  0  0  0  0
  1 12  1  0  0  0  0
  2  3  2  0  0  0  0
  4  2  1  0  0  0  0
  4  9  2  0  0  0  0
  5  4  1  0  0  0  0
  6  5  2  0  0  0  0
  6  7  1  0  0  0  0
  7  8  2  0  0  0  0
  8  9  1  0  0  0  0
  8 16  1  0  0  0  0
  9 17  1  0  0  0  0
 10  7  1  0  0  0  0
 10 19  1  0  0  0  0
 13  1  1  0  0  0  0
 14  5  1  0  0  0  0
 15  6  1  0  0  0  0
 18 10  1  0  0  0  0
M  END
>  <Charge>
0.0

>  <InChI>
1/C8H9NO/c1-6(10)7-2-4-8(9)5-3-7/h2-5H,9H2,1H3

>  <Molecular Formula>
C_{8}H_{9}NO

>  <Name>
4&#39-AMINOACETOPHENONE

>  <SMILES>
CC(=O)c1ccc(cc1)N

>  <logK (CHLOROFORM)>
8.14

>  <mean polarizability>
17.53

>  <dipole moment>
5.56686308351

$$$$
516
 OpenBabel08101817183D

 20 20  0  0  0  0  0  0  0  0999 V2000
    3.0261   -0.2316   -0.3151 C   0  0  0  0  0  0  0  0  0  0  0  0
    1.5676    0.1117   -0.1546 C   0  0  0  0  0  0  0  0  0  0  0  0
    1.1364    1.4316    0.0150 C   0  0  0  0  0  0  0  0  0  0  0  0
   -0.2140    1.7398    0.1625 C   0  0  0  0  0  0  0  0  0  0  0  0
   -1.1902    0.7305    0.1455 C   0  0  0  0  0  0  0  0  0  0  0  0
   -0.7788   -0.6143   -0.0248 C   0  0  0  0  0  0  0  0  0  0  0  0
    0.5827   -0.8855   -0.1695 C   0  0  0  0  0  0  0  0  0  0  0  0
   -1.7997   -1.7179   -0.0475 C   0  0  0  0  0  0  0  0  0  0  0  0
   -2.5279    1.0416    0.2916 N   0  0  0  0  0  0  0  0  0  0  0  0
    3.3741   -0.9096    0.4787 H   0  0  0  0  0  0  0  0  0  0  0  0
    3.2227   -0.7333   -1.2745 H   0  0  0  0  0  0  0  0  0  0  0  0
    3.6514    0.6696   -0.2784 H   0  0  0  0  0  0  0  0  0  0  0  0
    1.8699    2.2399    0.0329 H   0  0  0  0  0  0  0  0  0  0  0  0
   -0.5229    2.7790    0.2935 H   0  0  0  0  0  0  0  0  0  0  0  0
    0.8853   -1.9282   -0.3002 H   0  0  0  0  0  0  0  0  0  0  0  0
   -2.5273   -1.5885   -0.8663 H   0  0  0  0  0  0  0  0  0  0  0  0
   -2.3756   -1.7650    0.8920 H   0  0  0  0  0  0  0  0  0  0  0  0
   -1.3199   -2.6940   -0.1868 H   0  0  0  0  0  0  0  0  0  0  0  0
   -2.8225    1.9978    0.4145 H   0  0  0  0  0  0  0  0  0  0  0  0
   -3.2372    0.3265    0.2837 H   0  0  0  0  0  0  0  0  0  0  0  0
  1 12  1  0  0  0  0
  1  2  1  0  0  0  0
  1 10  1  0  0  0  0
  2  3  1  0  0  0  0
  3 13  1  0  0  0  0
  3  4  2  0  0  0  0
  4 14  1  0  0  0  0
  5  4  1  0  0  0  0
  5  9  1  0  0  0  0
  6  5  2  0  0  0  0
  7  2  2  0  0  0  0
  7  6  1  0  0  0  0
  8  6  1  0  0  0  0
  8 17  1  0  0  0  0
  9 19  1  0  0  0  0
 11  1  1  0  0  0  0
 15  7  1  0  0  0  0
 16  8  1  0  0  0  0
 18  8  1  0  0  0  0
 20  9  1  0  0  0  0
M  END
>  <Charge>
0.0

>  <InChI>
1/C8H11N/c1-6-3-4-8(9)7(2)5-6/h3-5H,9H2,1-2H3

>  <Molecular Formula>
C_{8}H_{11}N

>  <Name>
2,4-XYLIDINE

>  <SMILES>
Cc1ccc(c(c1)C)N

>  <logK (CHLOROFORM)>
6.5

>  <mean polarizability>
16.33

>  <dipole moment>
1.77323952469

$$$$
517
 OpenBabel08101817183D

 17 17  0  0  0  0  0  0  0  0999 V2000
   -2.6521    0.2373    0.2370 C   0  0  0  0  0  0  0  0  0  0  0  0
   -1.5789   -0.6743   -0.0707 N   0  0  0  0  0  0  0  0  0  0  0  0
   -0.2458   -0.3286   -0.0692 C   0  0  0  0  0  0  0  0  0  0  0  0
    0.1823    0.9785    0.2419 C   0  0  0  0  0  0  0  0  0  0  0  0
    1.5416    1.2944    0.2342 C   0  0  0  0  0  0  0  0  0  0  0  0
    2.5045    0.3351   -0.0785 C   0  0  0  0  0  0  0  0  0  0  0  0
    2.0838   -0.9636   -0.3880 C   0  0  0  0  0  0  0  0  0  0  0  0
    0.7348   -1.2951   -0.3850 C   0  0  0  0  0  0  0  0  0  0  0  0
   -2.6855    1.0906   -0.4621 H   0  0  0  0  0  0  0  0  0  0  0  0
   -2.5718    0.6433    1.2601 H   0  0  0  0  0  0  0  0  0  0  0  0
   -3.6053   -0.2972    0.1610 H   0  0  0  0  0  0  0  0  0  0  0  0
   -1.8123   -1.6286   -0.3034 H   0  0  0  0  0  0  0  0  0  0  0  0
   -0.5469    1.7482    0.4900 H   0  0  0  0  0  0  0  0  0  0  0  0
    1.8475    2.3124    0.4788 H   0  0  0  0  0  0  0  0  0  0  0  0
    3.5631    0.5908   -0.0819 H   0  0  0  0  0  0  0  0  0  0  0  0
    2.8189   -1.7303   -0.6357 H   0  0  0  0  0  0  0  0  0  0  0  0
    0.4221   -2.3129   -0.6286 H   0  0  0  0  0  0  0  0  0  0  0  0
  1 10  1  0  0  0  0
  2  3  1  0  0  0  0
  2  1  1  0  0  0  0
  3  4  2  0  0  0  0
  4 13  1  0  0  0  0
  5  4  1  0  0  0  0
  5 14  1  0  0  0  0
  6  5  2  0  0  0  0
  7  8  2  0  0  0  0
  7  6  1  0  0  0  0
  8  3  1  0  0  0  0
  9  1  1  0  0  0  0
 11  1  1  0  0  0  0
 12  2  1  0  0  0  0
 15  6  1  0  0  0  0
 16  7  1  0  0  0  0
 17  8  1  0  0  0  0
M  END
>  <Charge>
0.0

>  <InChI>
1/C7H9N/c1-8-7-5-3-2-4-6-7/h2-6,8H,1H3

>  <Molecular Formula>
C_{7}H_{9}N

>  <Name>
N-METHYLANILINE

>  <SMILES>
CNc1ccccc1

>  <logK (CARBON TETRACHLORIDE)>
4.84

>  <logK (CHLOROFORM)>
5.84

>  <mean polarizability>
14.24

>  <dipole moment>
2.2276616212

$$$$
518
 OpenBabel08101817183D

 26 26  0  0  0  0  0  0  0  0999 V2000
   -2.0940   -0.3573   -1.7039 C   0  0  0  0  0  0  0  0  0  0  0  0
   -1.3582   -1.3001   -0.7438 C   0  0  0  0  0  0  0  0  0  0  0  0
   -0.5589   -0.6427    0.2806 N   0  0  0  0  0  0  0  0  0  0  0  0
   -1.1511   -0.4598    1.5983 C   0  0  0  0  0  0  0  0  0  0  0  0
   -1.7859    0.9145    1.8445 C   0  0  0  0  0  0  0  0  0  0  0  0
    0.7109   -0.1615   -0.0045 C   0  0  0  0  0  0  0  0  0  0  0  0
    1.2939   -0.3191   -1.2864 C   0  0  0  0  0  0  0  0  0  0  0  0
    2.5868    0.1263   -1.5499 C   0  0  0  0  0  0  0  0  0  0  0  0
    3.3519    0.7556   -0.5668 C   0  0  0  0  0  0  0  0  0  0  0  0
    2.7838    0.9355    0.6954 C   0  0  0  0  0  0  0  0  0  0  0  0
    1.4924    0.4971    0.9772 C   0  0  0  0  0  0  0  0  0  0  0  0
   -2.8246    0.2633   -1.1693 H   0  0  0  0  0  0  0  0  0  0  0  0
   -1.3937    0.3139   -2.2170 H   0  0  0  0  0  0  0  0  0  0  0  0
   -2.6336   -0.9362   -2.4670 H   0  0  0  0  0  0  0  0  0  0  0  0
   -0.7140   -1.9859   -1.3166 H   0  0  0  0  0  0  0  0  0  0  0  0
   -2.0896   -1.9370   -0.2258 H   0  0  0  0  0  0  0  0  0  0  0  0
   -1.9141   -1.2417    1.7228 H   0  0  0  0  0  0  0  0  0  0  0  0
   -0.3870   -0.6599    2.3658 H   0  0  0  0  0  0  0  0  0  0  0  0
   -2.1675    0.9789    2.8736 H   0  0  0  0  0  0  0  0  0  0  0  0
   -2.6253    1.0926    1.1600 H   0  0  0  0  0  0  0  0  0  0  0  0
   -1.0565    1.7215    1.7000 H   0  0  0  0  0  0  0  0  0  0  0  0
    0.7356   -0.7912   -2.0915 H   0  0  0  0  0  0  0  0  0  0  0  0
    2.9956   -0.0192   -2.5508 H   0  0  0  0  0  0  0  0  0  0  0  0
    4.3602    1.1064   -0.7817 H   0  0  0  0  0  0  0  0  0  0  0  0
    3.3510    1.4322    1.4838 H   0  0  0  0  0  0  0  0  0  0  0  0
    1.0921    0.6738    1.9728 H   0  0  0  0  0  0  0  0  0  0  0  0
  1 12  1  0  0  0  0
  1  2  1  0  0  0  0
  2 16  1  0  0  0  0
  2  3  1  0  0  0  0
  3  4  1  0  0  0  0
  4 17  1  0  0  0  0
  4  5  1  0  0  0  0
  4 18  1  0  0  0  0
  5 19  1  0  0  0  0
  6  3  1  0  0  0  0
  6 11  2  0  0  0  0
  7  6  1  0  0  0  0
  8  7  2  0  0  0  0
  8  9  1  0  0  0  0
  9 10  2  0  0  0  0
 10 11  1  0  0  0  0
 10 25  1  0  0  0  0
 11 26  1  0  0  0  0
 13  1  1  0  0  0  0
 14  1  1  0  0  0  0
 15  2  1  0  0  0  0
 20  5  1  0  0  0  0
 21  5  1  0  0  0  0
 22  7  1  0  0  0  0
 23  8  1  0  0  0  0
 24  9  1  0  0  0  0
M  END
>  <Charge>
0.0

>  <InChI>
1/C10H15N/c1-3-11(4-2)10-8-6-5-7-9-10/h5-9H,3-4H2,1-2H3

>  <Molecular Formula>
C_{10}H_{15}N

>  <Name>
N,N-DIETHYLANILINE

>  <SMILES>
CCN(CC)c1ccccc1

>  <logK (CHLOROFORM)>
6.64

>  <dipole moment>
2.25116528501

>  <mean polarizability>
20.28

$$$$
519
 OpenBabel08101817183D

 17 17  0  0  0  0  0  0  0  0999 V2000
   -2.4794   -0.1318    0.1324 C   0  0  0  0  0  0  0  0  0  0  0  0
   -1.9208    1.1050   -0.1921 C   0  0  0  0  0  0  0  0  0  0  0  0
   -0.5391    1.2256   -0.3567 C   0  0  0  0  0  0  0  0  0  0  0  0
    0.3022    0.1166   -0.2079 C   0  0  0  0  0  0  0  0  0  0  0  0
   -0.2681   -1.1203    0.1231 C   0  0  0  0  0  0  0  0  0  0  0  0
   -1.6473   -1.2431    0.2915 C   0  0  0  0  0  0  0  0  0  0  0  0
    1.7942    0.2501   -0.4292 C   0  0  0  0  0  0  0  0  0  0  0  0
    2.5651   -0.5225    0.5530 N   0  0  0  0  0  0  0  0  0  0  0  0
   -3.5570   -0.2305    0.2656 H   0  0  0  0  0  0  0  0  0  0  0  0
   -2.5603    1.9803   -0.3104 H   0  0  0  0  0  0  0  0  0  0  0  0
   -0.1049    2.1971   -0.6025 H   0  0  0  0  0  0  0  0  0  0  0  0
    0.3865   -1.9816    0.2570 H   0  0  0  0  0  0  0  0  0  0  0  0
   -2.0764   -2.2122    0.5483 H   0  0  0  0  0  0  0  0  0  0  0  0
    2.0443   -0.1535   -1.4247 H   0  0  0  0  0  0  0  0  0  0  0  0
    2.0470    1.3273   -0.4606 H   0  0  0  0  0  0  0  0  0  0  0  0
    3.5595   -0.4882    0.3294 H   0  0  0  0  0  0  0  0  0  0  0  0
    2.4545   -0.1185    1.4839 H   0  0  0  0  0  0  0  0  0  0  0  0
  1  9  1  0  0  0  0
  1  6  1  0  0  0  0
  2  1  2  0  0  0  0
  3  4  2  0  0  0  0
  3  2  1  0  0  0  0
  4  5  1  0  0  0  0
  5 12  1  0  0  0  0
  5  6  2  0  0  0  0
  6 13  1  0  0  0  0
  7  4  1  0  0  0  0
  7  8  1  0  0  0  0
  8 17  1  0  0  0  0
 10  2  1  0  0  0  0
 11  3  1  0  0  0  0
 14  7  1  0  0  0  0
 15  7  1  0  0  0  0
 16  8  1  0  0  0  0
M  END
>  <Charge>
0.0

>  <InChI>
1/C7H9N/c8-6-7-4-2-1-3-5-7/h1-5H,6,8H2

>  <Molecular Formula>
C_{7}H_{9}N

>  <Name>
BENZYLAMINE

>  <SMILES>
c1ccc(cc1)CN

>  <logK (CHLOROFORM)>
5.83

>  <mean polarizability>
13.74

>  <dipole moment>
1.28930848765

$$$$
520
 OpenBabel08101817183D

 19 19  0  0  0  0  0  0  0  0999 V2000
    2.7721   -0.7179   -0.1440 C   0  0  0  0  0  0  0  0  0  0  0  0
    1.3843   -0.1297   -0.1306 C   0  0  0  0  0  0  0  0  0  0  0  0
    1.1667    1.2159   -0.4499 C   0  0  0  0  0  0  0  0  0  0  0  0
   -0.1188    1.7547   -0.4358 C   0  0  0  0  0  0  0  0  0  0  0  0
   -1.2136    0.9544   -0.1010 C   0  0  0  0  0  0  0  0  0  0  0  0
   -1.0359   -0.4003    0.2253 C   0  0  0  0  0  0  0  0  0  0  0  0
    0.2677   -0.9075    0.2010 C   0  0  0  0  0  0  0  0  0  0  0  0
   -2.2182   -1.2553    0.5844 C   0  0  0  0  0  0  0  0  0  0  0  0
   -2.5003    1.4435   -0.0741 O   0  0  0  0  0  0  0  0  0  0  0  0
    3.4364   -0.2004    0.5635 H   0  0  0  0  0  0  0  0  0  0  0  0
    2.7569   -1.7802    0.1301 H   0  0  0  0  0  0  0  0  0  0  0  0
    3.2351   -0.6367   -1.1384 H   0  0  0  0  0  0  0  0  0  0  0  0
    2.0104    1.8559   -0.7139 H   0  0  0  0  0  0  0  0  0  0  0  0
   -0.2747    2.8069   -0.6872 H   0  0  0  0  0  0  0  0  0  0  0  0
    0.4132   -1.9607    0.4539 H   0  0  0  0  0  0  0  0  0  0  0  0
   -2.7506   -0.8546    1.4592 H   0  0  0  0  0  0  0  0  0  0  0  0
   -1.9040   -2.2813    0.8103 H   0  0  0  0  0  0  0  0  0  0  0  0
   -2.9511   -1.2889   -0.2347 H   0  0  0  0  0  0  0  0  0  0  0  0
   -2.4759    2.3823   -0.3177 H   0  0  0  0  0  0  0  0  0  0  0  0
  1  2  1  0  0  0  0
  1 11  1  0  0  0  0
  1 10  1  0  0  0  0
  2  7  2  0  0  0  0
  3  4  2  0  0  0  0
  3  2  1  0  0  0  0
  4  5  1  0  0  0  0
  5  9  1  0  0  0  0
  5  6  2  0  0  0  0
  6  8  1  0  0  0  0
  7  6  1  0  0  0  0
  7 15  1  0  0  0  0
  8 17  1  0  0  0  0
  8 16  1  0  0  0  0
 12  1  1  0  0  0  0
 13  3  1  0  0  0  0
 14  4  1  0  0  0  0
 18  8  1  0  0  0  0
 19  9  1  0  0  0  0
M  END
>  <Charge>
0.0

>  <InChI>
1/C8H10O/c1-6-3-4-8(9)7(2)5-6/h3-5,9H,1-2H3

>  <Molecular Formula>
C_{8}H_{10}O

>  <Name>
2,4-XYLENOL

>  <SMILES>
Cc1ccc(c(c1)C)O

>  <logK (CHLOROFORM)>
5.91

>  <mean polarizability>
15.32

>  <dipole moment>
0.956005126733

$$$$
521
 OpenBabel08101817183D

 19 19  0  0  0  0  0  0  0  0999 V2000
    2.9761    0.1588   -0.1796 C   0  0  0  0  0  0  0  0  0  0  0  0
    1.4846    0.0093   -0.0271 C   0  0  0  0  0  0  0  0  0  0  0  0
    0.9390   -0.9496    0.8358 C   0  0  0  0  0  0  0  0  0  0  0  0
   -0.4438   -1.0772    0.9672 C   0  0  0  0  0  0  0  0  0  0  0  0
   -1.3381   -0.2694    0.2574 C   0  0  0  0  0  0  0  0  0  0  0  0
   -0.7820    0.6894   -0.6056 C   0  0  0  0  0  0  0  0  0  0  0  0
    0.6027    0.8245   -0.7437 C   0  0  0  0  0  0  0  0  0  0  0  0
   -1.6605    1.4848   -1.3045 O   0  0  0  0  0  0  0  0  0  0  0  0
   -2.8283   -0.4023    0.3951 C   0  0  0  0  0  0  0  0  0  0  0  0
    3.4351   -0.7740   -0.5376 H   0  0  0  0  0  0  0  0  0  0  0  0
    3.2315    0.9532   -0.8919 H   0  0  0  0  0  0  0  0  0  0  0  0
    3.4520    0.4029    0.7811 H   0  0  0  0  0  0  0  0  0  0  0  0
    1.6003   -1.6010    1.4089 H   0  0  0  0  0  0  0  0  0  0  0  0
   -0.8511   -1.8303    1.6447 H   0  0  0  0  0  0  0  0  0  0  0  0
    0.9998    1.5825   -1.4255 H   0  0  0  0  0  0  0  0  0  0  0  0
   -1.1474    2.0960   -1.8564 H   0  0  0  0  0  0  0  0  0  0  0  0
   -3.0836   -1.1963    1.1071 H   0  0  0  0  0  0  0  0  0  0  0  0
   -3.2847    0.5354    0.7440 H   0  0  0  0  0  0  0  0  0  0  0  0
   -3.3016   -0.6368   -0.5694 H   0  0  0  0  0  0  0  0  0  0  0  0
  1  2  1  0  0  0  0
  1 12  1  0  0  0  0
  2  3  2  0  0  0  0
  3  4  1  0  0  0  0
  3 13  1  0  0  0  0
  4 14  1  0  0  0  0
  5  9  1  0  0  0  0
  5  4  2  0  0  0  0
  6  5  1  0  0  0  0
  7  6  2  0  0  0  0
  7  2  1  0  0  0  0
  8  6  1  0  0  0  0
  9 18  1  0  0  0  0
  9 17  1  0  0  0  0
 10  1  1  0  0  0  0
 11  1  1  0  0  0  0
 15  7  1  0  0  0  0
 16  8  1  0  0  0  0
 19  9  1  0  0  0  0
M  END
>  <Charge>
0.0

>  <InChI>
1/C8H10O/c1-6-3-4-7(2)8(9)5-6/h3-5,9H,1-2H3

>  <Molecular Formula>
C_{8}H_{10}O

>  <Name>
2,5-DIMETHYLPHENOL

>  <SMILES>
Cc1ccc(c(c1)O)C

>  <logK (CHLOROFORM)>
5.93

>  <mean polarizability>
15.35

>  <dipole moment>
1.239352306

$$$$
522
 OpenBabel08101817183D

 19 19  0  0  0  0  0  0  0  0999 V2000
   -2.6061   -0.7414    0.1652 C   0  0  0  0  0  0  0  0  0  0  0  0
   -1.2102   -0.1790    0.0876 C   0  0  0  0  0  0  0  0  0  0  0  0
   -0.1022   -1.0161   -0.0761 C   0  0  0  0  0  0  0  0  0  0  0  0
    1.2005   -0.5001   -0.1525 C   0  0  0  0  0  0  0  0  0  0  0  0
    1.3892    0.8810   -0.0666 C   0  0  0  0  0  0  0  0  0  0  0  0
    0.2891    1.7279    0.0989 C   0  0  0  0  0  0  0  0  0  0  0  0
   -1.0030    1.2038    0.1759 C   0  0  0  0  0  0  0  0  0  0  0  0
    0.5399    3.0759    0.1776 O   0  0  0  0  0  0  0  0  0  0  0  0
    2.3821   -1.4243   -0.2966 C   0  0  0  0  0  0  0  0  0  0  0  0
   -3.0901   -0.4780    1.1168 H   0  0  0  0  0  0  0  0  0  0  0  0
   -3.2418   -0.3447   -0.6398 H   0  0  0  0  0  0  0  0  0  0  0  0
   -2.6008   -1.8348    0.0817 H   0  0  0  0  0  0  0  0  0  0  0  0
   -0.2549   -2.0945   -0.1501 H   0  0  0  0  0  0  0  0  0  0  0  0
    2.3862    1.3179   -0.1298 H   0  0  0  0  0  0  0  0  0  0  0  0
   -1.8561    1.8771    0.2988 H   0  0  0  0  0  0  0  0  0  0  0  0
   -0.3052    3.5399    0.2885 H   0  0  0  0  0  0  0  0  0  0  0  0
    2.7533   -1.7436    0.6893 H   0  0  0  0  0  0  0  0  0  0  0  0
    2.1146   -2.3319   -0.8528 H   0  0  0  0  0  0  0  0  0  0  0  0
    3.2157   -0.9349   -0.8162 H   0  0  0  0  0  0  0  0  0  0  0  0
  1 10  1  0  0  0  0
  2  1  1  0  0  0  0
  2  7  2  0  0  0  0
  3  2  1  0  0  0  0
  4  3  2  0  0  0  0
  4  5  1  0  0  0  0
  5  6  2  0  0  0  0
  6  7  1  0  0  0  0
  6  8  1  0  0  0  0
  7 15  1  0  0  0  0
  8 16  1  0  0  0  0
  9  4  1  0  0  0  0
  9 17  1  0  0  0  0
 11  1  1  0  0  0  0
 12  1  1  0  0  0  0
 13  3  1  0  0  0  0
 14  5  1  0  0  0  0
 18  9  1  0  0  0  0
 19  9  1  0  0  0  0
M  END
>  <Charge>
0.0

>  <InChI>
1/C8H10O/c1-6-3-7(2)5-8(9)4-6/h3-5,9H,1-2H3

>  <Molecular Formula>
C_{8}H_{10}O

>  <Name>
3,5-DIMETHYLPHENOL

>  <SMILES>
Cc1cc(cc(c1)O)C

>  <logK (CHLOROFORM)>
6.2

>  <mean polarizability>
15.37

>  <dipole moment>
1.27823686839

$$$$
523
 OpenBabel08101817183D

 19 19  0  0  0  0  0  0  0  0999 V2000
   -2.4231   -0.5709    0.7005 C   0  0  0  0  0  0  0  0  0  0  0  0
   -1.6557   -0.2794   -0.5987 C   0  0  0  0  0  0  0  0  0  0  0  0
   -0.1687   -0.1366   -0.3911 C   0  0  0  0  0  0  0  0  0  0  0  0
    0.7144   -1.1858   -0.6684 C   0  0  0  0  0  0  0  0  0  0  0  0
    2.0908   -1.0737   -0.4606 C   0  0  0  0  0  0  0  0  0  0  0  0
    2.6125    0.1204    0.0364 C   0  0  0  0  0  0  0  0  0  0  0  0
    1.7580    1.1858    0.3199 C   0  0  0  0  0  0  0  0  0  0  0  0
    0.3816    1.0580    0.1105 C   0  0  0  0  0  0  0  0  0  0  0  0
   -0.4887    2.0899    0.3771 O   0  0  0  0  0  0  0  0  0  0  0  0
   -2.2854    0.2394    1.4276 H   0  0  0  0  0  0  0  0  0  0  0  0
   -2.0726   -1.5039    1.1623 H   0  0  0  0  0  0  0  0  0  0  0  0
   -3.4994   -0.6715    0.5040 H   0  0  0  0  0  0  0  0  0  0  0  0
   -2.0529    0.6412   -1.0508 H   0  0  0  0  0  0  0  0  0  0  0  0
   -1.8323   -1.0915   -1.3191 H   0  0  0  0  0  0  0  0  0  0  0  0
    0.3028   -2.1165   -1.0642 H   0  0  0  0  0  0  0  0  0  0  0  0
    2.7498   -1.9111   -0.6870 H   0  0  0  0  0  0  0  0  0  0  0  0
    3.6839    0.2298    0.2039 H   0  0  0  0  0  0  0  0  0  0  0  0
    2.1592    2.1264    0.7059 H   0  0  0  0  0  0  0  0  0  0  0  0
    0.0257    2.8501    0.6919 H   0  0  0  0  0  0  0  0  0  0  0  0
  1 11  1  0  0  0  0
  1 10  1  0  0  0  0
  2  3  1  0  0  0  0
  2  1  1  0  0  0  0
  3  8  2  0  0  0  0
  4  5  2  0  0  0  0
  4  3  1  0  0  0  0
  5  6  1  0  0  0  0
  6 17  1  0  0  0  0
  6  7  2  0  0  0  0
  7 18  1  0  0  0  0
  8  7  1  0  0  0  0
  8  9  1  0  0  0  0
  9 19  1  0  0  0  0
 12  1  1  0  0  0  0
 13  2  1  0  0  0  0
 14  2  1  0  0  0  0
 15  4  1  0  0  0  0
 16  5  1  0  0  0  0
M  END
>  <Charge>
0.0

>  <InChI>
1/C8H10O/c1-2-7-5-3-4-6-8(7)9/h3-6,9H,2H2,1H3

>  <Molecular Formula>
C_{8}H_{10}O

>  <Name>
2-ETHYLPHENOL

>  <SMILES>
CCc1ccccc1O

>  <logK (CHLOROFORM)>
6.15

>  <mean polarizability>
15.08

>  <dipole moment>
1.02017856902

$$$$
524
 OpenBabel08101817183D

 19 19  0  0  0  0  0  0  0  0999 V2000
    2.6093    0.2166   -0.5481 C   0  0  0  0  0  0  0  0  0  0  0  0
    1.7448   -0.0123    0.7014 C   0  0  0  0  0  0  0  0  0  0  0  0
    0.2802   -0.1820    0.3736 C   0  0  0  0  0  0  0  0  0  0  0  0
   -0.2478   -1.4424    0.0645 C   0  0  0  0  0  0  0  0  0  0  0  0
   -1.5940   -1.5783   -0.2810 C   0  0  0  0  0  0  0  0  0  0  0  0
   -2.4372   -0.4704   -0.3256 C   0  0  0  0  0  0  0  0  0  0  0  0
   -1.9177    0.7904   -0.0156 C   0  0  0  0  0  0  0  0  0  0  0  0
   -0.5700    0.9301    0.3314 C   0  0  0  0  0  0  0  0  0  0  0  0
   -2.7781    1.8592   -0.0612 O   0  0  0  0  0  0  0  0  0  0  0  0
    3.6677    0.3368   -0.2788 H   0  0  0  0  0  0  0  0  0  0  0  0
    2.5276   -0.6302   -1.2428 H   0  0  0  0  0  0  0  0  0  0  0  0
    2.2901    1.1191   -1.0870 H   0  0  0  0  0  0  0  0  0  0  0  0
    1.8710    0.8354    1.3921 H   0  0  0  0  0  0  0  0  0  0  0  0
    2.1035   -0.9063    1.2334 H   0  0  0  0  0  0  0  0  0  0  0  0
    0.3981   -2.3208    0.0994 H   0  0  0  0  0  0  0  0  0  0  0  0
   -1.9952   -2.5648   -0.5152 H   0  0  0  0  0  0  0  0  0  0  0  0
   -3.4897   -0.5632   -0.5899 H   0  0  0  0  0  0  0  0  0  0  0  0
   -0.1772    1.9209    0.5799 H   0  0  0  0  0  0  0  0  0  0  0  0
   -2.2852    2.6626    0.1695 H   0  0  0  0  0  0  0  0  0  0  0  0
  1 10  1  0  0  0  0
  1  2  1  0  0  0  0
  2 14  1  0  0  0  0
  2 13  1  0  0  0  0
  3  2  1  0  0  0  0
  4 15  1  0  0  0  0
  4  3  2  0  0  0  0
  5  4  1  0  0  0  0
  6  5  2  0  0  0  0
  6  7  1  0  0  0  0
  7  8  2  0  0  0  0
  8  3  1  0  0  0  0
  8 18  1  0  0  0  0
  9  7  1  0  0  0  0
  9 19  1  0  0  0  0
 11  1  1  0  0  0  0
 12  1  1  0  0  0  0
 16  5  1  0  0  0  0
 17  6  1  0  0  0  0
M  END
>  <Charge>
0.0

>  <InChI>
1/C8H10O/c1-2-7-4-3-5-8(9)6-7/h3-6,9H,2H2,1H3

>  <Molecular Formula>
C_{8}H_{10}O

>  <Name>
3-ETHYLPHENOL

>  <SMILES>
CCc1cccc(c1)O

>  <logK (CHLOROFORM)>
6.0

>  <mean polarizability>
15.17

>  <dipole moment>
1.59021941058

$$$$
525
 OpenBabel08101817183D

 19 19  0  0  0  0  0  0  0  0999 V2000
   -2.6397   -0.0798   -0.9587 C   0  0  0  0  0  0  0  0  0  0  0  0
   -1.9402   -0.1936    0.4041 C   0  0  0  0  0  0  0  0  0  0  0  0
   -0.4361   -0.1034    0.3051 C   0  0  0  0  0  0  0  0  0  0  0  0
    0.3511   -1.2491    0.1197 C   0  0  0  0  0  0  0  0  0  0  0  0
    1.7353   -1.1739   -0.0175 C   0  0  0  0  0  0  0  0  0  0  0  0
    2.3687    0.0715    0.0292 C   0  0  0  0  0  0  0  0  0  0  0  0
    1.6059    1.2280    0.2182 C   0  0  0  0  0  0  0  0  0  0  0  0
    0.2206    1.1325    0.3536 C   0  0  0  0  0  0  0  0  0  0  0  0
    3.7348    0.0975   -0.1080 O   0  0  0  0  0  0  0  0  0  0  0  0
   -3.7310   -0.1517   -0.8513 H   0  0  0  0  0  0  0  0  0  0  0  0
   -2.4074    0.8803   -1.4399 H   0  0  0  0  0  0  0  0  0  0  0  0
   -2.3107   -0.8781   -1.6378 H   0  0  0  0  0  0  0  0  0  0  0  0
   -2.2180   -1.1483    0.8759 H   0  0  0  0  0  0  0  0  0  0  0  0
   -2.3115    0.6007    1.0691 H   0  0  0  0  0  0  0  0  0  0  0  0
   -0.1297   -2.2289    0.0867 H   0  0  0  0  0  0  0  0  0  0  0  0
    2.3389   -2.0706   -0.1544 H   0  0  0  0  0  0  0  0  0  0  0  0
    2.0963    2.2032    0.2671 H   0  0  0  0  0  0  0  0  0  0  0  0
   -0.3608    2.0441    0.5054 H   0  0  0  0  0  0  0  0  0  0  0  0
    4.0333    1.0194   -0.0575 H   0  0  0  0  0  0  0  0  0  0  0  0
  1 10  1  0  0  0  0
  1  2  1  0  0  0  0
  2 13  1  0  0  0  0
  2 14  1  0  0  0  0
  3  8  1  0  0  0  0
  3  2  1  0  0  0  0
  4  3  2  0  0  0  0
  5  6  2  0  0  0  0
  5  4  1  0  0  0  0
  6  7  1  0  0  0  0
  7 17  1  0  0  0  0
  7  8  2  0  0  0  0
  8 18  1  0  0  0  0
  9 19  1  0  0  0  0
  9  6  1  0  0  0  0
 11  1  1  0  0  0  0
 12  1  1  0  0  0  0
 15  4  1  0  0  0  0
 16  5  1  0  0  0  0
M  END
>  <Charge>
0.0

>  <InChI>
1/C8H10O/c1-2-7-3-5-8(9)6-4-7/h3-6,9H,2H2,1H3

>  <Molecular Formula>
C_{8}H_{10}O

>  <Name>
4-ETHYLPHENOL

>  <SMILES>
CCc1ccc(cc1)O

>  <logK (CHLOROFORM)>
5.97

>  <mean polarizability>
15.25

>  <dipole moment>
1.27036235627

$$$$
526
 OpenBabel08101817183D

 25 25  0  0  0  0  0  0  0  0999 V2000
    3.8629   -0.3722   -0.2757 C   0  0  0  0  0  0  0  0  0  0  0  0
    2.3686   -0.1810   -0.2807 C   0  0  0  0  0  0  0  0  0  0  0  0
    1.7110    0.3697   -1.3875 C   0  0  0  0  0  0  0  0  0  0  0  0
    0.3275    0.5374   -1.3704 C   0  0  0  0  0  0  0  0  0  0  0  0
   -0.4704    0.1763   -0.2765 C   0  0  0  0  0  0  0  0  0  0  0  0
    0.2020   -0.3761    0.8299 C   0  0  0  0  0  0  0  0  0  0  0  0
    1.5910   -0.5478    0.8205 C   0  0  0  0  0  0  0  0  0  0  0  0
   -0.5396   -0.7471    1.9297 O   0  0  0  0  0  0  0  0  0  0  0  0
   -1.9743    0.3884   -0.3277 C   0  0  0  0  0  0  0  0  0  0  0  0
   -2.4697    1.3949    0.7250 C   0  0  0  0  0  0  0  0  0  0  0  0
   -2.7640   -0.9300   -0.2580 C   0  0  0  0  0  0  0  0  0  0  0  0
    4.1821   -1.0328   -1.0947 H   0  0  0  0  0  0  0  0  0  0  0  0
    4.2104   -0.8139    0.6666 H   0  0  0  0  0  0  0  0  0  0  0  0
    4.3868    0.5847   -0.4121 H   0  0  0  0  0  0  0  0  0  0  0  0
    2.2830    0.6687   -2.2669 H   0  0  0  0  0  0  0  0  0  0  0  0
   -0.1666    0.9688   -2.2436 H   0  0  0  0  0  0  0  0  0  0  0  0
    2.0752   -0.9812    1.7013 H   0  0  0  0  0  0  0  0  0  0  0  0
    0.0678   -1.1055    2.5965 H   0  0  0  0  0  0  0  0  0  0  0  0
   -2.1745    0.8320   -1.3169 H   0  0  0  0  0  0  0  0  0  0  0  0
   -1.9369    2.3514    0.6388 H   0  0  0  0  0  0  0  0  0  0  0  0
   -2.3219    1.0121    1.7422 H   0  0  0  0  0  0  0  0  0  0  0  0
   -3.5428    1.5899    0.5871 H   0  0  0  0  0  0  0  0  0  0  0  0
   -3.8373   -0.7364   -0.3967 H   0  0  0  0  0  0  0  0  0  0  0  0
   -2.4403   -1.6267   -1.0430 H   0  0  0  0  0  0  0  0  0  0  0  0
   -2.6304   -1.4232    0.7126 H   0  0  0  0  0  0  0  0  0  0  0  0
  1 13  1  0  0  0  0
  2  1  1  0  0  0  0
  2  7  2  0  0  0  0
  3  4  2  0  0  0  0
  3  2  1  0  0  0  0
  4  5  1  0  0  0  0
  5  6  2  0  0  0  0
  6  8  1  0  0  0  0
  7  6  1  0  0  0  0
  7 17  1  0  0  0  0
  8 18  1  0  0  0  0
  9  5  1  0  0  0  0
  9 11  1  0  0  0  0
  9 10  1  0  0  0  0
 10 21  1  0  0  0  0
 11 25  1  0  0  0  0
 12  1  1  0  0  0  0
 14  1  1  0  0  0  0
 15  3  1  0  0  0  0
 16  4  1  0  0  0  0
 19  9  1  0  0  0  0
 20 10  1  0  0  0  0
 22 10  1  0  0  0  0
 23 11  1  0  0  0  0
 24 11  1  0  0  0  0
M  END
>  <Charge>
0.0

>  <InChI>
1/C10H14O/c1-7(2)9-5-4-8(3)6-10(9)11/h4-7,11H,1-3H3

>  <Molecular Formula>
C_{10}H_{14}O

>  <Name>
THYMOL

>  <SMILES>
Cc1ccc(c(c1)O)C(C)C

>  <logK (CHLOROFORM)>
7.06

>  <dipole moment>
1.38260764751

>  <mean polarizability>
19.25

$$$$
527
 OpenBabel08101817183D

 13 13  0  0  0  0  0  0  0  0999 V2000
   -1.0324   -1.0347    0.4115 C   0  0  0  0  0  0  0  0  0  0  0  0
   -1.6727    0.1161   -0.0471 C   0  0  0  0  0  0  0  0  0  0  0  0
   -0.9112    1.2052   -0.4804 C   0  0  0  0  0  0  0  0  0  0  0  0
    0.4728    1.1287   -0.4491 C   0  0  0  0  0  0  0  0  0  0  0  0
    1.1368   -0.0194    0.0084 C   0  0  0  0  0  0  0  0  0  0  0  0
    0.3620   -1.1008    0.4386 C   0  0  0  0  0  0  0  0  0  0  0  0
    2.5027   -0.0118    0.0061 O   0  0  0  0  0  0  0  0  0  0  0  0
    1.2142    2.1810   -0.8678 F   0  0  0  0  0  0  0  0  0  0  0  0
   -1.6155   -1.8896    0.7515 H   0  0  0  0  0  0  0  0  0  0  0  0
   -2.7599    0.1723   -0.0702 H   0  0  0  0  0  0  0  0  0  0  0  0
   -1.3752    2.1208   -0.8453 H   0  0  0  0  0  0  0  0  0  0  0  0
    0.8642   -2.0021    0.7977 H   0  0  0  0  0  0  0  0  0  0  0  0
    2.8142   -0.8657    0.3461 H   0  0  0  0  0  0  0  0  0  0  0  0
  1  6  1  0  0  0  0
  1  9  1  0  0  0  0
  2  1  2  0  0  0  0
  3  4  2  0  0  0  0
  3  2  1  0  0  0  0
  4  5  1  0  0  0  0
  5  6  2  0  0  0  0
  6 12  1  0  0  0  0
  7  5  1  0  0  0  0
  7 13  1  0  0  0  0
  8  4  1  0  0  0  0
 10  2  1  0  0  0  0
 11  3  1  0  0  0  0
M  END
>  <Charge>
0.0

>  <InChI>
1/C6H5FO/c7-5-3-1-2-4-6(5)8/h1-4,8H

>  <Molecular Formula>
C_{6}H_{5}FO

>  <Name>
2-FLUOROPHENOL

>  <SMILES>
c1ccc(c(c1)O)F

>  <logK (CHLOROFORM)>
4.45

>  <mean polarizability>
11.19

>  <dipole moment>
2.50032110543

$$$$
528
 OpenBabel08101817183D

 13 13  0  0  0  0  0  0  0  0999 V2000
   -0.6302    1.4721    0.0979 C   0  0  0  0  0  0  0  0  0  0  0  0
    0.7308    1.1833    0.1479 C   0  0  0  0  0  0  0  0  0  0  0  0
    1.1527   -0.1476    0.0511 C   0  0  0  0  0  0  0  0  0  0  0  0
    0.2167   -1.1778   -0.0943 C   0  0  0  0  0  0  0  0  0  0  0  0
   -1.1397   -0.8565   -0.1411 C   0  0  0  0  0  0  0  0  0  0  0  0
   -1.5839    0.4610   -0.0468 C   0  0  0  0  0  0  0  0  0  0  0  0
   -2.3007   -2.1454   -0.3225 Cl  0  0  0  0  0  0  0  0  0  0  0  0
    2.4989   -0.3894    0.1043 O   0  0  0  0  0  0  0  0  0  0  0  0
   -0.9601    2.5081    0.1731 H   0  0  0  0  0  0  0  0  0  0  0  0
    1.4759    1.9692    0.2603 H   0  0  0  0  0  0  0  0  0  0  0  0
    0.5345   -2.2181   -0.1706 H   0  0  0  0  0  0  0  0  0  0  0  0
   -2.6473    0.6855   -0.0860 H   0  0  0  0  0  0  0  0  0  0  0  0
    2.6523   -1.3445    0.0266 H   0  0  0  0  0  0  0  0  0  0  0  0
  1  2  1  0  0  0  0
  1  9  1  0  0  0  0
  2 10  1  0  0  0  0
  3  8  1  0  0  0  0
  3  2  2  0  0  0  0
  4  3  1  0  0  0  0
  5  4  2  0  0  0  0
  5  6  1  0  0  0  0
  6  1  2  0  0  0  0
  7  5  1  0  0  0  0
 11  4  1  0  0  0  0
 12  6  1  0  0  0  0
 13  8  1  0  0  0  0
M  END
>  <Charge>
0.0

>  <InChI>
1/C6H5ClO/c7-5-2-1-3-6(8)4-5/h1-4,8H

>  <Molecular Formula>
C_{6}H_{5}ClO

>  <Name>
3-CHLOROPHENOL

>  <SMILES>
c1cc(cc(c1)Cl)O

>  <logK (CARBON TETRACHLORIDE)>
5.341

>  <logK (CHLOROFORM)>
5.87

>  <mean polarizability>
13.44

>  <dipole moment>
0.97543937608

$$$$
529
 OpenBabel08101817183D

 13 13  0  0  0  0  0  0  0  0999 V2000
   -0.5834    1.1011   -0.0232 C   0  0  0  0  0  0  0  0  0  0  0  0
    0.8026    1.2238   -0.1227 C   0  0  0  0  0  0  0  0  0  0  0  0
    1.5971    0.0786   -0.1111 C   0  0  0  0  0  0  0  0  0  0  0  0
    1.0162   -1.1864   -0.0010 C   0  0  0  0  0  0  0  0  0  0  0  0
   -0.3673   -1.3068    0.0983 C   0  0  0  0  0  0  0  0  0  0  0  0
   -1.1728   -0.1628    0.0876 C   0  0  0  0  0  0  0  0  0  0  0  0
   -2.5276   -0.3431    0.1884 O   0  0  0  0  0  0  0  0  0  0  0  0
    3.3307    0.2272   -0.2353 Cl  0  0  0  0  0  0  0  0  0  0  0  0
   -1.2066    1.9979   -0.0322 H   0  0  0  0  0  0  0  0  0  0  0  0
    1.2635    2.2061   -0.2091 H   0  0  0  0  0  0  0  0  0  0  0  0
    1.6467   -2.0738    0.0069 H   0  0  0  0  0  0  0  0  0  0  0  0
   -0.8364   -2.2860    0.1849 H   0  0  0  0  0  0  0  0  0  0  0  0
   -2.9624    0.5241    0.1684 H   0  0  0  0  0  0  0  0  0  0  0  0
  1  6  2  0  0  0  0
  2  3  2  0  0  0  0
  2  1  1  0  0  0  0
  3  4  1  0  0  0  0
  4 11  1  0  0  0  0
  4  5  2  0  0  0  0
  5 12  1  0  0  0  0
  6  5  1  0  0  0  0
  6  7  1  0  0  0  0
  8  3  1  0  0  0  0
  9  1  1  0  0  0  0
 10  2  1  0  0  0  0
 13  7  1  0  0  0  0
M  END
>  <Charge>
0.0

>  <InChI>
1/C6H5ClO/c7-5-1-3-6(8)4-2-5/h1-4,8H

>  <Molecular Formula>
C_{6}H_{5}ClO

>  <Name>
4-CHLOROPHENOL

>  <SMILES>
c1cc(ccc1O)Cl

>  <logK (CARBON TETRACHLORIDE)>
5.56

>  <logK (CHLOROFORM)>
6.23

>  <mean polarizability>
13.45

>  <dipole moment>
2.23553692452

$$$$
530
 OpenBabel08101817183D

 13 13  0  0  0  0  0  0  0  0999 V2000
   -1.5083   -0.4276   -0.5149 C   0  0  0  0  0  0  0  0  0  0  0  0
   -1.4709    0.8524    0.0448 C   0  0  0  0  0  0  0  0  0  0  0  0
   -0.2644    1.3602    0.5280 C   0  0  0  0  0  0  0  0  0  0  0  0
    0.8849    0.5807    0.4441 C   0  0  0  0  0  0  0  0  0  0  0  0
    0.8655   -0.7071   -0.1149 C   0  0  0  0  0  0  0  0  0  0  0  0
   -0.3543   -1.2016   -0.5954 C   0  0  0  0  0  0  0  0  0  0  0  0
    1.9692   -1.4914   -0.2107 O   0  0  0  0  0  0  0  0  0  0  0  0
    2.5589    1.2451    1.0970 Br  0  0  0  0  0  0  0  0  0  0  0  0
   -2.4476   -0.8296   -0.8938 H   0  0  0  0  0  0  0  0  0  0  0  0
   -2.3739    1.4578    0.1078 H   0  0  0  0  0  0  0  0  0  0  0  0
   -0.2122    2.3547    0.9677 H   0  0  0  0  0  0  0  0  0  0  0  0
   -0.3677   -2.2012   -1.0288 H   0  0  0  0  0  0  0  0  0  0  0  0
    2.7207   -0.9923    0.1691 H   0  0  0  0  0  0  0  0  0  0  0  0
  1  2  1  0  0  0  0
  2 10  1  0  0  0  0
  2  3  2  0  0  0  0
  3 11  1  0  0  0  0
  4  3  1  0  0  0  0
  4  8  1  0  0  0  0
  5  4  2  0  0  0  0
  6  1  2  0  0  0  0
  6  5  1  0  0  0  0
  7  5  1  0  0  0  0
  7 13  1  0  0  0  0
  9  1  1  0  0  0  0
 12  6  1  0  0  0  0
M  END
>  <Charge>
0.0

>  <InChI>
1/C6H5BrO/c7-5-3-1-2-4-6(5)8/h1-4,8H

>  <Molecular Formula>
C_{6}H_{5}BrO

>  <Name>
2-BROMOPHENOL

>  <SMILES>
c1ccc(c(c1)O)Br

>  <logK (CARBON TETRACHLORIDE)>
5.2

>  <logK (CHLOROFORM)>
5.37

>  <mean polarizability>
14.12

>  <dipole moment>
0.850520465288

$$$$
531
 OpenBabel08101817183D

 13 13  0  0  0  0  0  0  0  0999 V2000
   -0.5299    1.0700   -0.3742 C   0  0  0  0  0  0  0  0  0  0  0  0
    0.8642    1.0952   -0.4375 C   0  0  0  0  0  0  0  0  0  0  0  0
    1.5868   -0.0306   -0.0502 C   0  0  0  0  0  0  0  0  0  0  0  0
    0.9340   -1.1790    0.3988 C   0  0  0  0  0  0  0  0  0  0  0  0
   -0.4573   -1.2014    0.4609 C   0  0  0  0  0  0  0  0  0  0  0  0
   -1.1942   -0.0765    0.0745 C   0  0  0  0  0  0  0  0  0  0  0  0
   -2.5595   -0.1572    0.1572 O   0  0  0  0  0  0  0  0  0  0  0  0
    3.4952   -0.0013   -0.1351 Br  0  0  0  0  0  0  0  0  0  0  0  0
   -1.0995    1.9512   -0.6771 H   0  0  0  0  0  0  0  0  0  0  0  0
    1.3798    1.9878   -0.7867 H   0  0  0  0  0  0  0  0  0  0  0  0
    1.5079   -2.0537    0.6992 H   0  0  0  0  0  0  0  0  0  0  0  0
   -0.9847   -2.0887    0.8085 H   0  0  0  0  0  0  0  0  0  0  0  0
   -2.9426    0.6840   -0.1381 H   0  0  0  0  0  0  0  0  0  0  0  0
  1  6  1  0  0  0  0
  2  1  2  0  0  0  0
  2  3  1  0  0  0  0
  3  4  2  0  0  0  0
  4  5  1  0  0  0  0
  4 11  1  0  0  0  0
  5 12  1  0  0  0  0
  6  7  1  0  0  0  0
  6  5  2  0  0  0  0
  8  3  1  0  0  0  0
  9  1  1  0  0  0  0
 10  2  1  0  0  0  0
 13  7  1  0  0  0  0
M  END
>  <Charge>
0.0

>  <InChI>
1/C6H5BrO/c7-5-1-3-6(8)4-2-5/h1-4,8H

>  <Molecular Formula>
C_{6}H_{5}BrO

>  <Name>
4-BROMOPHENOL

>  <SMILES>
c1cc(ccc1O)Br

>  <logK (CHLOROFORM)>
6.3

>  <mean polarizability>
14.24

>  <dipole moment>
2.24620257556

$$$$
532
 OpenBabel08101817183D

 13 13  0  0  0  0  0  0  0  0999 V2000
   -1.4707   -0.3007   -0.7205 C   0  0  0  0  0  0  0  0  0  0  0  0
   -1.2887    1.0488   -0.4065 C   0  0  0  0  0  0  0  0  0  0  0  0
   -0.1036    1.4613    0.2033 C   0  0  0  0  0  0  0  0  0  0  0  0
    0.8848    0.5221    0.4920 C   0  0  0  0  0  0  0  0  0  0  0  0
    0.7157   -0.8378    0.1820 C   0  0  0  0  0  0  0  0  0  0  0  0
   -0.4819   -1.2352   -0.4308 C   0  0  0  0  0  0  0  0  0  0  0  0
    1.6451   -1.7922    0.4411 O   0  0  0  0  0  0  0  0  0  0  0  0
    2.6954    1.1229    1.4185 I   0  0  0  0  0  0  0  0  0  0  0  0
   -2.3936   -0.6307   -1.1969 H   0  0  0  0  0  0  0  0  0  0  0  0
   -2.0618    1.7818   -0.6325 H   0  0  0  0  0  0  0  0  0  0  0  0
    0.0526    2.5091    0.4540 H   0  0  0  0  0  0  0  0  0  0  0  0
   -0.6085   -2.2908   -0.6695 H   0  0  0  0  0  0  0  0  0  0  0  0
    2.4152   -1.3585    0.8658 H   0  0  0  0  0  0  0  0  0  0  0  0
  1  6  2  0  0  0  0
  1  2  1  0  0  0  0
  2  3  2  0  0  0  0
  3 11  1  0  0  0  0
  3  4  1  0  0  0  0
  4  8  1  0  0  0  0
  5  7  1  0  0  0  0
  5  4  2  0  0  0  0
  6  5  1  0  0  0  0
  7 13  1  0  0  0  0
  9  1  1  0  0  0  0
 10  2  1  0  0  0  0
 12  6  1  0  0  0  0
M  END
>  <Charge>
0.0

>  <InChI>
1/C6H5IO/c7-5-3-1-2-4-6(5)8/h1-4,8H

>  <Molecular Formula>
C_{6}H_{5}IO

>  <Name>
IODOPHENOL

>  <SMILES>
c1ccc(c(c1)O)I

>  <logK (CHLOROFORM)>
6.52

>  <mean polarizability>
15.98

>  <dipole moment>
0.879043762325

$$$$
533
 OpenBabel08101817183D

 13 13  0  0  0  0  0  0  0  0999 V2000
   -0.5651   -1.2164   -0.2850 C   0  0  0  0  0  0  0  0  0  0  0  0
    0.8191   -1.2353   -0.4423 C   0  0  0  0  0  0  0  0  0  0  0  0
    1.5627   -0.0793   -0.1941 C   0  0  0  0  0  0  0  0  0  0  0  0
    0.9298    1.0953    0.2106 C   0  0  0  0  0  0  0  0  0  0  0  0
   -0.4571    1.1122    0.3676 C   0  0  0  0  0  0  0  0  0  0  0  0
   -1.2081   -0.0420    0.1207 C   0  0  0  0  0  0  0  0  0  0  0  0
   -2.5700   -0.0831    0.2584 O   0  0  0  0  0  0  0  0  0  0  0  0
    3.6648   -0.1098   -0.4343 I   0  0  0  0  0  0  0  0  0  0  0  0
   -1.1591   -2.1097   -0.4748 H   0  0  0  0  0  0  0  0  0  0  0  0
    1.3133   -2.1524   -0.7583 H   0  0  0  0  0  0  0  0  0  0  0  0
    1.5065    1.9978    0.4048 H   0  0  0  0  0  0  0  0  0  0  0  0
   -0.9530    2.0323    0.6846 H   0  0  0  0  0  0  0  0  0  0  0  0
   -2.8841    0.7903    0.5419 H   0  0  0  0  0  0  0  0  0  0  0  0
  1  6  1  0  0  0  0
  2  1  2  0  0  0  0
  2  3  1  0  0  0  0
  3  4  2  0  0  0  0
  4  5  1  0  0  0  0
  4 11  1  0  0  0  0
  5 12  1  0  0  0  0
  6  7  1  0  0  0  0
  6  5  2  0  0  0  0
  7 13  1  0  0  0  0
  8  3  1  0  0  0  0
  9  1  1  0  0  0  0
 10  2  1  0  0  0  0
M  END
>  <Charge>
0.0

>  <InChI>
1/C6H5IO/c7-5-1-3-6(8)4-2-5/h1-4,8H

>  <Molecular Formula>
C_{6}H_{5}IO

>  <Name>
4-IODOPHENOL

>  <SMILES>
c1cc(ccc1O)I

>  <logK (CHLOROFORM)>
7.14

>  <mean polarizability>
16.11

>  <dipole moment>
2.24027967277

$$$$
534
 OpenBabel08101817183D

 13 13  0  0  0  0  0  0  0  0999 V2000
    1.2167    0.9448   -0.4812 C   0  0  0  0  0  0  0  0  0  0  0  0
   -0.1150    1.3356   -0.3791 C   0  0  0  0  0  0  0  0  0  0  0  0
   -1.0950    0.4340    0.0504 C   0  0  0  0  0  0  0  0  0  0  0  0
   -0.6986   -0.8742    0.3752 C   0  0  0  0  0  0  0  0  0  0  0  0
    0.6288   -1.2828    0.2791 C   0  0  0  0  0  0  0  0  0  0  0  0
    1.5826   -0.3620   -0.1519 C   0  0  0  0  0  0  0  0  0  0  0  0
    3.2480   -0.8558   -0.2780 Cl  0  0  0  0  0  0  0  0  0  0  0  0
   -1.9287   -1.9908    0.9098 Cl  0  0  0  0  0  0  0  0  0  0  0  0
   -2.3834    0.8523    0.1372 O   0  0  0  0  0  0  0  0  0  0  0  0
    1.9732    1.6517   -0.8162 H   0  0  0  0  0  0  0  0  0  0  0  0
   -0.4197    2.3503   -0.6316 H   0  0  0  0  0  0  0  0  0  0  0  0
    0.9108   -2.3010    0.5364 H   0  0  0  0  0  0  0  0  0  0  0  0
   -2.9197    0.0978    0.4500 H   0  0  0  0  0  0  0  0  0  0  0  0
  1  2  2  0  0  0  0
  1  6  1  0  0  0  0
  2  3  1  0  0  0  0
  3  9  1  0  0  0  0
  3  4  2  0  0  0  0
  4  8  1  0  0  0  0
  5  4  1  0  0  0  0
  5 12  1  0  0  0  0
  6  5  2  0  0  0  0
  7  6  1  0  0  0  0
  9 13  1  0  0  0  0
 10  1  1  0  0  0  0
 11  2  1  0  0  0  0
M  END
>  <Charge>
0.0

>  <InChI>
1/C6H4Cl2O/c7-4-1-2-6(9)5(8)3-4/h1-3,9H

>  <Molecular Formula>
C_{6}H_{4}Cl_{2}O

>  <Name>
2,4-DICHLOROPHENOL

>  <SMILES>
c1cc(c(cc1Cl)Cl)O

>  <logK (CHLOROFORM)>
5.74

>  <mean polarizability>
15.78

>  <dipole moment>
0.875527891064

$$$$
535
 OpenBabel08101817183D

 17 17  0  0  0  0  0  0  0  0999 V2000
    2.7498   -0.0328    0.0241 C   0  0  0  0  0  0  0  0  0  0  0  0
    1.6435   -0.8246   -0.4227 O   0  0  0  0  0  0  0  0  0  0  0  0
    0.3440   -0.4576   -0.2061 C   0  0  0  0  0  0  0  0  0  0  0  0
   -0.6004   -1.3605   -0.7172 C   0  0  0  0  0  0  0  0  0  0  0  0
   -1.9697   -1.1504   -0.5900 C   0  0  0  0  0  0  0  0  0  0  0  0
   -2.4346   -0.0095    0.0647 C   0  0  0  0  0  0  0  0  0  0  0  0
   -1.5107    0.8974    0.5782 C   0  0  0  0  0  0  0  0  0  0  0  0
   -0.1314    0.6969    0.4564 C   0  0  0  0  0  0  0  0  0  0  0  0
    0.7596    1.6149    0.9763 O   0  0  0  0  0  0  0  0  0  0  0  0
    2.7595    0.0736    1.1162 H   0  0  0  0  0  0  0  0  0  0  0  0
    2.7514    0.9622   -0.4387 H   0  0  0  0  0  0  0  0  0  0  0  0
    3.6369   -0.5889   -0.2983 H   0  0  0  0  0  0  0  0  0  0  0  0
   -0.2124   -2.2438   -1.2241 H   0  0  0  0  0  0  0  0  0  0  0  0
   -2.6682   -1.8777   -1.0021 H   0  0  0  0  0  0  0  0  0  0  0  0
   -3.5014    0.1778    0.1771 H   0  0  0  0  0  0  0  0  0  0  0  0
   -1.8565    1.7974    1.0944 H   0  0  0  0  0  0  0  0  0  0  0  0
    0.2407    2.3255    1.3851 H   0  0  0  0  0  0  0  0  0  0  0  0
  1 10  1  0  0  0  0
  2  3  1  0  0  0  0
  2  1  1  0  0  0  0
  3  8  2  0  0  0  0
  4  5  2  0  0  0  0
  4  3  1  0  0  0  0
  5  6  1  0  0  0  0
  6 15  1  0  0  0  0
  6  7  2  0  0  0  0
  7 16  1  0  0  0  0
  8  7  1  0  0  0  0
  8  9  1  0  0  0  0
  9 17  1  0  0  0  0
 11  1  1  0  0  0  0
 12  1  1  0  0  0  0
 13  4  1  0  0  0  0
 14  5  1  0  0  0  0
M  END
>  <Charge>
0.0

>  <InChI>
1/C7H8O2/c1-9-7-5-3-2-4-6(7)8/h2-5,8H,1H3

>  <Molecular Formula>
C_{7}H_{8}O_{2}

>  <Name>
GUAIACOL

>  <SMILES>
COc1ccccc1O

>  <logK (CHLOROFORM)>
5.79

>  <mean polarizability>
14.08

>  <dipole moment>
1.80809295303

$$$$
536
 OpenBabel08101817183D

 17 17  0  0  0  0  0  0  0  0999 V2000
    2.7013    0.5077    0.2359 C   0  0  0  0  0  0  0  0  0  0  0  0
    1.9238   -0.6585   -0.0058 O   0  0  0  0  0  0  0  0  0  0  0  0
    0.5638   -0.5200   -0.0574 C   0  0  0  0  0  0  0  0  0  0  0  0
   -0.1635   -1.6948   -0.2978 C   0  0  0  0  0  0  0  0  0  0  0  0
   -1.5516   -1.6328   -0.3639 C   0  0  0  0  0  0  0  0  0  0  0  0
   -2.2381   -0.4283   -0.1966 C   0  0  0  0  0  0  0  0  0  0  0  0
   -1.5036    0.7334    0.0418 C   0  0  0  0  0  0  0  0  0  0  0  0
   -0.1036    0.6994    0.1135 C   0  0  0  0  0  0  0  0  0  0  0  0
   -2.2023    1.9043    0.2026 O   0  0  0  0  0  0  0  0  0  0  0  0
    2.5598    1.2600   -0.5570 H   0  0  0  0  0  0  0  0  0  0  0  0
    3.7449    0.1773    0.2374 H   0  0  0  0  0  0  0  0  0  0  0  0
    2.4618    0.9586    1.2126 H   0  0  0  0  0  0  0  0  0  0  0  0
    0.3752   -2.6317   -0.4276 H   0  0  0  0  0  0  0  0  0  0  0  0
   -2.1170   -2.5459   -0.5508 H   0  0  0  0  0  0  0  0  0  0  0  0
   -3.3240   -0.3757   -0.2477 H   0  0  0  0  0  0  0  0  0  0  0  0
    0.4456    1.6220    0.3009 H   0  0  0  0  0  0  0  0  0  0  0  0
   -1.5723    2.6251    0.3599 H   0  0  0  0  0  0  0  0  0  0  0  0
  1 11  1  0  0  0  0
  1 12  1  0  0  0  0
  2  1  1  0  0  0  0
  3  2  1  0  0  0  0
  3  8  2  0  0  0  0
  4  3  1  0  0  0  0
  5  4  2  0  0  0  0
  5  6  1  0  0  0  0
  6  7  2  0  0  0  0
  7  8  1  0  0  0  0
  7  9  1  0  0  0  0
  8 16  1  0  0  0  0
  9 17  1  0  0  0  0
 10  1  1  0  0  0  0
 13  4  1  0  0  0  0
 14  5  1  0  0  0  0
 15  6  1  0  0  0  0
M  END
>  <Charge>
0.0

>  <InChI>
1/C7H8O2/c1-9-7-4-2-3-6(8)5-7/h2-5,8H,1H3

>  <Molecular Formula>
C_{7}H_{8}O_{2}

>  <Name>
3-METHOXYPHENOL

>  <SMILES>
COc1cccc(c1)O

>  <logK (CHLOROFORM)>
6.39

>  <mean polarizability>
12.77

>  <dipole moment>
2.47071526276

$$$$
537
 OpenBabel08101817183D

 17 17  0  0  0  0  0  0  0  0999 V2000
    2.8884   -0.4781    0.2901 C   0  0  0  0  0  0  0  0  0  0  0  0
    2.0487    0.6167   -0.0500 O   0  0  0  0  0  0  0  0  0  0  0  0
    0.6938    0.3965   -0.0402 C   0  0  0  0  0  0  0  0  0  0  0  0
   -0.1086    1.4964   -0.3803 C   0  0  0  0  0  0  0  0  0  0  0  0
   -1.4922    1.3838   -0.4019 C   0  0  0  0  0  0  0  0  0  0  0  0
   -2.1032    0.1644   -0.0826 C   0  0  0  0  0  0  0  0  0  0  0  0
   -1.3101   -0.9309    0.2558 C   0  0  0  0  0  0  0  0  0  0  0  0
    0.0858   -0.8215    0.2788 C   0  0  0  0  0  0  0  0  0  0  0  0
   -3.4782    0.1130   -0.1211 O   0  0  0  0  0  0  0  0  0  0  0  0
    2.7630   -1.3189   -0.4118 H   0  0  0  0  0  0  0  0  0  0  0  0
    3.9147   -0.1026    0.2240 H   0  0  0  0  0  0  0  0  0  0  0  0
    2.6965   -0.8332    1.3160 H   0  0  0  0  0  0  0  0  0  0  0  0
    0.3764    2.4404   -0.6270 H   0  0  0  0  0  0  0  0  0  0  0  0
   -2.1163    2.2369   -0.6656 H   0  0  0  0  0  0  0  0  0  0  0  0
   -1.7763   -1.8865    0.5063 H   0  0  0  0  0  0  0  0  0  0  0  0
    0.6783   -1.6936    0.5468 H   0  0  0  0  0  0  0  0  0  0  0  0
   -3.7608   -0.7830    0.1201 H   0  0  0  0  0  0  0  0  0  0  0  0
  1 12  1  0  0  0  0
  2  3  1  0  0  0  0
  2  1  1  0  0  0  0
  3  8  2  0  0  0  0
  4  3  1  0  0  0  0
  5  4  2  0  0  0  0
  5  6  1  0  0  0  0
  6  7  2  0  0  0  0
  7  8  1  0  0  0  0
  7 15  1  0  0  0  0
  8 16  1  0  0  0  0
  9  6  1  0  0  0  0
  9 17  1  0  0  0  0
 10  1  1  0  0  0  0
 11  1  1  0  0  0  0
 13  4  1  0  0  0  0
 14  5  1  0  0  0  0
M  END
>  <Charge>
0.0

>  <InChI>
1/C7H8O2/c1-9-7-4-2-6(8)3-5-7/h2-5,8H,1H3

>  <Molecular Formula>
C_{7}H_{8}O_{2}

>  <Name>
MEQUINOL

>  <SMILES>
COc1ccc(cc1)O

>  <logK (CHLOROFORM)>
6.61

>  <mean polarizability>
14.15

>  <dipole moment>
2.35799469398

$$$$
538
 OpenBabel08101817183D

 15 15  0  0  0  0  0  0  0  0999 V2000
   -1.3420   -1.2469   -0.6120 C   0  0  0  0  0  0  0  0  0  0  0  0
   -2.0267   -0.2016    0.0343 C   0  0  0  0  0  0  0  0  0  0  0  0
   -1.3510    0.8730    0.5977 C   0  0  0  0  0  0  0  0  0  0  0  0
    0.0503    0.9281    0.5263 C   0  0  0  0  0  0  0  0  0  0  0  0
    0.7559   -0.1242   -0.1262 C   0  0  0  0  0  0  0  0  0  0  0  0
    0.0395   -1.2006   -0.6874 C   0  0  0  0  0  0  0  0  0  0  0  0
    2.1993   -0.0746   -0.2054 C   0  0  0  0  0  0  0  0  0  0  0  0
    2.8903    0.8418    0.2662 O   0  0  0  0  0  0  0  0  0  0  0  0
    0.7026    1.9634    1.0690 O   0  0  0  0  0  0  0  0  0  0  0  0
   -1.8957   -2.0785   -1.0446 H   0  0  0  0  0  0  0  0  0  0  0  0
   -3.1150   -0.2325    0.0964 H   0  0  0  0  0  0  0  0  0  0  0  0
   -1.8824    1.6819    1.0974 H   0  0  0  0  0  0  0  0  0  0  0  0
    0.5994   -1.9968   -1.1826 H   0  0  0  0  0  0  0  0  0  0  0  0
    2.6953   -0.9237   -0.7273 H   0  0  0  0  0  0  0  0  0  0  0  0
    1.6803    1.7911    0.8984 H   0  0  0  0  0  0  0  0  0  0  0  0
  1  2  1  0  0  0  0
  2 11  1  0  0  0  0
  2  3  2  0  0  0  0
  3 12  1  0  0  0  0
  4  3  1  0  0  0  0
  4  9  1  0  0  0  0
  5  4  2  0  0  0  0
  6  1  2  0  0  0  0
  6  5  1  0  0  0  0
  7  5  1  0  0  0  0
  7  8  2  0  0  0  0
 10  1  1  0  0  0  0
 13  6  1  0  0  0  0
 14  7  1  0  0  0  0
 15  9  1  0  0  0  0
M  END
>  <Charge>
0.0

>  <InChI>
1/C7H6O2/c8-5-6-3-1-2-4-7(6)9/h1-5,9H

>  <Molecular Formula>
C_{7}H_{6}O_{2}

>  <Name>
SALICYLALDEHYDE

>  <SMILES>
c1ccc(c(c1)C=O)O

>  <logK (CHLOROFORM)>
5.69

>  <mean polarizability>
13.91

>  <dipole moment>
3.03480768468

$$$$
539
 OpenBabel08101817183D

 18 18  0  0  0  0  0  0  0  0999 V2000
    2.9099    0.2626   -0.4517 C   0  0  0  0  0  0  0  0  0  0  0  0
    1.9408   -0.5851    0.3535 C   0  0  0  0  0  0  0  0  0  0  0  0
    2.3570   -1.4751    1.0877 O   0  0  0  0  0  0  0  0  0  0  0  0
    0.4793   -0.3118    0.2313 C   0  0  0  0  0  0  0  0  0  0  0  0
   -0.0437    0.6953   -0.5951 C   0  0  0  0  0  0  0  0  0  0  0  0
   -1.4159    0.9136   -0.6767 C   0  0  0  0  0  0  0  0  0  0  0  0
   -2.2921    0.1199    0.0743 C   0  0  0  0  0  0  0  0  0  0  0  0
   -1.7874   -0.8913    0.9056 C   0  0  0  0  0  0  0  0  0  0  0  0
   -0.4193   -1.0974    0.9771 C   0  0  0  0  0  0  0  0  0  0  0  0
   -3.6464    0.2844    0.0377 O   0  0  0  0  0  0  0  0  0  0  0  0
    2.8167    1.3265   -0.1905 H   0  0  0  0  0  0  0  0  0  0  0  0
    2.7125    0.1739   -1.5296 H   0  0  0  0  0  0  0  0  0  0  0  0
    3.9293   -0.0739   -0.2414 H   0  0  0  0  0  0  0  0  0  0  0  0
    0.6223    1.3226   -1.1866 H   0  0  0  0  0  0  0  0  0  0  0  0
   -1.8116    1.7001   -1.3230 H   0  0  0  0  0  0  0  0  0  0  0  0
   -2.4854   -1.4976    1.4818 H   0  0  0  0  0  0  0  0  0  0  0  0
   -0.0051   -1.8769    1.6160 H   0  0  0  0  0  0  0  0  0  0  0  0
   -3.8609    1.0103   -0.5703 H   0  0  0  0  0  0  0  0  0  0  0  0
  1 13  1  0  0  0  0
  1 11  1  0  0  0  0
  1  2  1  0  0  0  0
  2  3  2  0  0  0  0
  4  2  1  0  0  0  0
  4  9  2  0  0  0  0
  5  4  1  0  0  0  0
  6  5  2  0  0  0  0
  6  7  1  0  0  0  0
  7  8  2  0  0  0  0
  8  9  1  0  0  0  0
  8 16  1  0  0  0  0
  9 17  1  0  0  0  0
 10  7  1  0  0  0  0
 12  1  1  0  0  0  0
 14  5  1  0  0  0  0
 15  6  1  0  0  0  0
 18 10  1  0  0  0  0
M  END
>  <Charge>
0.0

>  <InChI>
1/C8H8O2/c1-6(9)7-2-4-8(10)5-3-7/h2-5,10H,1H3

>  <Molecular Formula>
C_{8}H_{8}O_{2}

>  <Name>
PICEOL

>  <SMILES>
CC(=O)c1ccc(cc1)O

>  <logK (CHLOROFORM)>
8.1

>  <mean polarizability>
16.12

>  <dipole moment>
4.44454979869

$$$$
540
 OpenBabel08101817183D

 15 15  0  0  0  0  0  0  0  0999 V2000
   -0.6341    1.6557    0.3708 C   0  0  0  0  0  0  0  0  0  0  0  0
    0.6364    1.1583    0.6654 C   0  0  0  0  0  0  0  0  0  0  0  0
    0.9236   -0.1509    0.2917 C   0  0  0  0  0  0  0  0  0  0  0  0
    0.0009   -0.9692   -0.3562 C   0  0  0  0  0  0  0  0  0  0  0  0
   -1.2641   -0.4507   -0.6410 C   0  0  0  0  0  0  0  0  0  0  0  0
   -1.5815    0.8656   -0.2760 C   0  0  0  0  0  0  0  0  0  0  0  0
   -2.2322   -1.1777   -1.2725 O   0  0  0  0  0  0  0  0  0  0  0  0
    2.2647   -0.7099    0.5903 N   0  0  0  0  0  0  0  0  0  0  0  0
    3.0731    0.0218    1.1634 O   0  0  0  0  0  0  0  0  0  0  0  0
    2.4876   -1.8733    0.2457 O   0  0  0  0  0  0  0  0  0  0  0  0
   -0.8899    2.6770    0.6505 H   0  0  0  0  0  0  0  0  0  0  0  0
    1.3927    1.7541    1.1689 H   0  0  0  0  0  0  0  0  0  0  0  0
    0.2855   -1.9864   -0.6235 H   0  0  0  0  0  0  0  0  0  0  0  0
   -2.5739    1.2499   -0.5078 H   0  0  0  0  0  0  0  0  0  0  0  0
   -1.8888   -2.0641   -1.4695 H   0  0  0  0  0  0  0  0  0  0  0  0
  1 11  1  0  0  0  0
  1  2  1  0  0  0  0
  2 12  1  0  0  0  0
  3  8  1  0  0  0  0
  3  2  2  0  0  0  0
  4  3  1  0  0  0  0
  5  4  2  0  0  0  0
  5  6  1  0  0  0  0
  6  1  2  0  0  0  0
  7  5  1  0  0  0  0
  8  9  2  0  0  0  0
 10  8  2  0  0  0  0
 13  4  1  0  0  0  0
 14  6  1  0  0  0  0
 15  7  1  0  0  0  0
M  END
>  <Charge>
0.0

>  <InChI>
1/C6H5NO3/c8-6-3-1-2-5(4-6)7(9)10/h1-4,8H

>  <Molecular Formula>
C_{6}H_{5}NO_{3}

>  <Name>
3-NITROPHENOL

>  <SMILES>
c1cc(cc(c1)O)[N+](=O)[O-]

>  <logK (CHLOROFORM)>
7.56

>  <mean polarizability>
14.16

>  <dipole moment>
3.66891158082

$$$$
541
 OpenBabel08101817183D

 15 15  0  0  0  0  0  0  0  0999 V2000
   -0.4094    1.1215    0.3547 C   0  0  0  0  0  0  0  0  0  0  0  0
    0.9461    0.9840    0.6248 C   0  0  0  0  0  0  0  0  0  0  0  0
    1.6073   -0.2107    0.3010 C   0  0  0  0  0  0  0  0  0  0  0  0
    0.9054   -1.2693   -0.2952 C   0  0  0  0  0  0  0  0  0  0  0  0
   -0.4482   -1.1320   -0.5650 C   0  0  0  0  0  0  0  0  0  0  0  0
   -1.0958    0.0619   -0.2381 C   0  0  0  0  0  0  0  0  0  0  0  0
   -2.5303    0.2060   -0.5245 N   0  0  0  0  0  0  0  0  0  0  0  0
   -3.0715    1.2749   -0.2227 O   0  0  0  0  0  0  0  0  0  0  0  0
   -3.1094   -0.7498   -1.0500 O   0  0  0  0  0  0  0  0  0  0  0  0
    2.9333   -0.4015    0.5424 O   0  0  0  0  0  0  0  0  0  0  0  0
   -0.9472    2.0359    0.5948 H   0  0  0  0  0  0  0  0  0  0  0  0
    1.4967    1.8046    1.0886 H   0  0  0  0  0  0  0  0  0  0  0  0
    1.4380   -2.1872   -0.5382 H   0  0  0  0  0  0  0  0  0  0  0  0
   -1.0183   -1.9351   -1.0264 H   0  0  0  0  0  0  0  0  0  0  0  0
    3.3033    0.3968    0.9538 H   0  0  0  0  0  0  0  0  0  0  0  0
  1 11  1  0  0  0  0
  1  2  1  0  0  0  0
  2 12  1  0  0  0  0
  3 10  1  0  0  0  0
  3  2  2  0  0  0  0
  4  3  1  0  0  0  0
  5  4  2  0  0  0  0
  5  6  1  0  0  0  0
  6  1  2  0  0  0  0
  7  6  1  0  0  0  0
  7  8  2  0  0  0  0
  9  7  2  0  0  0  0
 10 15  1  0  0  0  0
 13  4  1  0  0  0  0
 14  5  1  0  0  0  0
M  END
>  <Charge>
0.0

>  <InChI>
1/C6H5NO3/c8-6-3-1-5(2-4-6)7(9)10/h1-4,8H

>  <Molecular Formula>
C_{6}H_{5}NO_{3}

>  <Name>
4-NITROPHENOL

>  <SMILES>
c1cc(ccc1[N+](=O)[O-])O

>  <logK (CHLOROFORM)>
8.01

>  <mean polarizability>
14.59

>  <dipole moment>
5.41755566682

$$$$
542
 OpenBabel08101817183D

 17 17  0  0  0  0  0  0  0  0999 V2000
    1.0487    1.2531   -0.3935 C   0  0  0  0  0  0  0  0  0  0  0  0
   -0.2857    1.5658   -0.5799 C   0  0  0  0  0  0  0  0  0  0  0  0
   -1.3099    0.6382   -0.3025 C   0  0  0  0  0  0  0  0  0  0  0  0
   -0.9351   -0.6407    0.1790 C   0  0  0  0  0  0  0  0  0  0  0  0
    0.4071   -0.9579    0.3676 C   0  0  0  0  0  0  0  0  0  0  0  0
    1.3832   -0.0166    0.0825 C   0  0  0  0  0  0  0  0  0  0  0  0
    2.8032   -0.3637    0.2864 N   0  0  0  0  0  0  0  0  0  0  0  0
    3.6383    0.5046    0.0197 O   0  0  0  0  0  0  0  0  0  0  0  0
    3.0603   -1.4919    0.7071 O   0  0  0  0  0  0  0  0  0  0  0  0
   -1.9224   -1.6991    0.5058 N   0  0  0  0  0  0  0  0  0  0  0  0
   -3.1143   -1.4436    0.3479 O   0  0  0  0  0  0  0  0  0  0  0  0
   -1.4747   -2.7716    0.9168 O   0  0  0  0  0  0  0  0  0  0  0  0
   -2.6020    0.9651   -0.4917 O   0  0  0  0  0  0  0  0  0  0  0  0
    1.8382    1.9700   -0.6080 H   0  0  0  0  0  0  0  0  0  0  0  0
   -0.5652    2.5538   -0.9514 H   0  0  0  0  0  0  0  0  0  0  0  0
    0.6734   -1.9448    0.7378 H   0  0  0  0  0  0  0  0  0  0  0  0
   -2.6430    1.8795   -0.8233 H   0  0  0  0  0  0  0  0  0  0  0  0
  1  6  1  0  0  0  0
  2  1  2  0  0  0  0
  2  3  1  0  0  0  0
  3  4  2  0  0  0  0
  4  5  1  0  0  0  0
  4 10  1  0  0  0  0
  5 16  1  0  0  0  0
  6  7  1  0  0  0  0
  6  5  2  0  0  0  0
  7  9  2  0  0  0  0
  8  7  2  0  0  0  0
 10 12  2  0  0  0  0
 11 10  2  0  0  0  0
 13  3  1  0  0  0  0
 14  1  1  0  0  0  0
 15  2  1  0  0  0  0
 17 13  1  0  0  0  0
M  END
>  <Charge>
0.0

>  <InChI>
1/C6H4N2O5/c9-6-2-1-4(7(10)11)3-5(6)8(12)13/h1-3,9H

>  <Molecular Formula>
C_{6}H_{4}N_{2}O_{5}

>  <Name>
2,4-DINITROPHENOL

>  <SMILES>
c1cc(c(cc1[N+](=O)[O-])[N+](=O)[O-])O

>  <logK (CHLOROFORM)>
7.83

>  <mean polarizability>
17.58

>  <dipole moment>
6.05631055426

$$$$
543
 OpenBabel08101817183D

 16 16  0  0  0  0  0  0  0  0999 V2000
   -1.3465    1.5866    0.0218 C   0  0  0  0  0  0  0  0  0  0  0  0
   -2.0863    0.4238    0.2526 C   0  0  0  0  0  0  0  0  0  0  0  0
   -1.4468   -0.8122    0.2949 C   0  0  0  0  0  0  0  0  0  0  0  0
   -0.0652   -0.8914    0.1060 C   0  0  0  0  0  0  0  0  0  0  0  0
    0.7019    0.2661   -0.1286 C   0  0  0  0  0  0  0  0  0  0  0  0
    0.0279    1.4968   -0.1647 C   0  0  0  0  0  0  0  0  0  0  0  0
    2.1928    0.3055   -0.3481 C   0  0  0  0  0  0  0  0  0  0  0  0
    2.7864    1.3440   -0.5476 O   0  0  0  0  0  0  0  0  0  0  0  0
    2.8677   -0.8692   -0.3166 O   0  0  0  0  0  0  0  0  0  0  0  0
    0.5776   -2.1114    0.1456 O   0  0  0  0  0  0  0  0  0  0  0  0
   -1.8419    2.5557   -0.0123 H   0  0  0  0  0  0  0  0  0  0  0  0
   -3.1648    0.4748    0.4007 H   0  0  0  0  0  0  0  0  0  0  0  0
   -2.0185   -1.7252    0.4765 H   0  0  0  0  0  0  0  0  0  0  0  0
    0.6369    2.3815   -0.3477 H   0  0  0  0  0  0  0  0  0  0  0  0
    2.2430   -1.6061   -0.1464 H   0  0  0  0  0  0  0  0  0  0  0  0
   -0.0642   -2.8193    0.3139 H   0  0  0  0  0  0  0  0  0  0  0  0
  1  2  2  0  0  0  0
  2  3  1  0  0  0  0
  2 12  1  0  0  0  0
  3 13  1  0  0  0  0
  4 10  1  0  0  0  0
  4  3  2  0  0  0  0
  5  4  1  0  0  0  0
  6  5  2  0  0  0  0
  6  1  1  0  0  0  0
  7  9  1  0  0  0  0
  7  5  1  0  0  0  0
  8  7  2  0  0  0  0
  9 15  1  0  0  0  0
 10 16  1  0  0  0  0
 11  1  1  0  0  0  0
 14  6  1  0  0  0  0
M  END
>  <Charge>
0.0

>  <InChI>
1/C7H6O3/c8-6-4-2-1-3-5(6)7(9)10/h1-4,8H,(H,9,10)

>  <Molecular Formula>
C_{7}H_{6}O_{3}

>  <Name>
SALICYLIC ACID

>  <SMILES>
c1ccc(c(c1)C(=O)O)O

>  <logK (CHLOROFORM)>
5.97

>  <mean polarizability>
14.2

>  <dipole moment>
6.39035065796

$$$$
544
 OpenBabel08101817183D

 17 17  0  0  0  0  0  0  0  0999 V2000
    1.6556   -1.2627   -0.0841 C   0  0  0  0  0  0  0  0  0  0  0  0
    2.3123   -0.0676   -0.3866 C   0  0  0  0  0  0  0  0  0  0  0  0
    1.5913    1.1172   -0.5058 C   0  0  0  0  0  0  0  0  0  0  0  0
    0.2045    1.1136   -0.3255 C   0  0  0  0  0  0  0  0  0  0  0  0
   -0.4749   -0.0789   -0.0091 C   0  0  0  0  0  0  0  0  0  0  0  0
    0.2738   -1.2578    0.1006 C   0  0  0  0  0  0  0  0  0  0  0  0
   -1.9747   -0.0927    0.1985 C   0  0  0  0  0  0  0  0  0  0  0  0
   -2.4443   -1.1592    1.0161 O   0  0  0  0  0  0  0  0  0  0  0  0
   -0.4358    2.3191   -0.4799 O   0  0  0  0  0  0  0  0  0  0  0  0
    2.2148   -2.1934    0.0054 H   0  0  0  0  0  0  0  0  0  0  0  0
    3.3924   -0.0539   -0.5329 H   0  0  0  0  0  0  0  0  0  0  0  0
    2.0834    2.0602   -0.7418 H   0  0  0  0  0  0  0  0  0  0  0  0
   -0.2530   -2.1837    0.3335 H   0  0  0  0  0  0  0  0  0  0  0  0
   -2.3139    0.8779    0.6209 H   0  0  0  0  0  0  0  0  0  0  0  0
   -2.5005   -0.2159   -0.7618 H   0  0  0  0  0  0  0  0  0  0  0  0
   -1.9481   -1.1293    1.8503 H   0  0  0  0  0  0  0  0  0  0  0  0
   -1.3828    2.2069   -0.2978 H   0  0  0  0  0  0  0  0  0  0  0  0
  1 10  1  0  0  0  0
  1  6  2  0  0  0  0
  2  1  1  0  0  0  0
  3  2  2  0  0  0  0
  3  4  1  0  0  0  0
  4  5  2  0  0  0  0
  5  6  1  0  0  0  0
  5  7  1  0  0  0  0
  6 13  1  0  0  0  0
  7 14  1  0  0  0  0
  7  8  1  0  0  0  0
  8 16  1  0  0  0  0
  9  4  1  0  0  0  0
  9 17  1  0  0  0  0
 11  2  1  0  0  0  0
 12  3  1  0  0  0  0
 15  7  1  0  0  0  0
M  END
>  <Charge>
0.0

>  <InChI>
1/C7H8O2/c8-5-6-3-1-2-4-7(6)9/h1-4,8-9H,5H2

>  <Molecular Formula>
C_{7}H_{8}O_{2}

>  <Name>
SALICYL ALCOHOL

>  <SMILES>
c1ccc(c(c1)CO)O

>  <logK (CHLOROFORM)>
6.96

>  <mean polarizability>
13.84

>  <dipole moment>
0.729116709393

$$$$
545
 OpenBabel08101817183D

 19 19  0  0  0  0  0  0  0  0999 V2000
   -2.7648   -0.2643   -0.5756 C   0  0  0  0  0  0  0  0  0  0  0  0
   -1.8665   -1.2740   -0.9251 C   0  0  0  0  0  0  0  0  0  0  0  0
   -0.5476   -1.2252   -0.4713 C   0  0  0  0  0  0  0  0  0  0  0  0
   -0.1014   -0.1714    0.3386 C   0  0  0  0  0  0  0  0  0  0  0  0
   -1.0154    0.8343    0.6839 C   0  0  0  0  0  0  0  0  0  0  0  0
   -2.3353    0.7898    0.2329 C   0  0  0  0  0  0  0  0  0  0  0  0
    1.3377   -0.0919    0.7825 C   0  0  0  0  0  0  0  0  0  0  0  0
    2.2077    0.6763   -0.2252 C   0  0  0  0  0  0  0  0  0  0  0  0
    3.5669    0.8045    0.1927 O   0  0  0  0  0  0  0  0  0  0  0  0
   -3.7959   -0.3017   -0.9271 H   0  0  0  0  0  0  0  0  0  0  0  0
   -2.1957   -2.1054   -1.5492 H   0  0  0  0  0  0  0  0  0  0  0  0
    0.1459   -2.0244   -0.7413 H   0  0  0  0  0  0  0  0  0  0  0  0
   -0.6898    1.6577    1.3228 H   0  0  0  0  0  0  0  0  0  0  0  0
   -3.0332    1.5779    0.5174 H   0  0  0  0  0  0  0  0  0  0  0  0
    1.7485   -1.1075    0.9029 H   0  0  0  0  0  0  0  0  0  0  0  0
    1.4158    0.4082    1.7585 H   0  0  0  0  0  0  0  0  0  0  0  0
    2.1375    0.1979   -1.2188 H   0  0  0  0  0  0  0  0  0  0  0  0
    1.8335    1.7036   -0.3326 H   0  0  0  0  0  0  0  0  0  0  0  0
    3.9521   -0.0843    0.2342 H   0  0  0  0  0  0  0  0  0  0  0  0
  1  6  1  0  0  0  0
  2  1  2  0  0  0  0
  2  3  1  0  0  0  0
  3  4  2  0  0  0  0
  4  5  1  0  0  0  0
  4  7  1  0  0  0  0
  5 13  1  0  0  0  0
  6 14  1  0  0  0  0
  6  5  2  0  0  0  0
  7 15  1  0  0  0  0
  7 16  1  0  0  0  0
  8  9  1  0  0  0  0
  8  7  1  0  0  0  0
  9 19  1  0  0  0  0
 10  1  1  0  0  0  0
 11  2  1  0  0  0  0
 12  3  1  0  0  0  0
 17  8  1  0  0  0  0
 18  8  1  0  0  0  0
M  END
>  <Charge>
0.0

>  <InChI>
1/C8H10O/c9-7-6-8-4-2-1-3-5-8/h1-5,9H,6-7H2

>  <Molecular Formula>
C_{8}H_{10}O

>  <Name>
PHENYLETHYL ALCOHOL

>  <SMILES>
c1ccc(cc1)CCO

>  <logK (CHLOROFORM)>
6.29

>  <mean polarizability>
15.07

>  <dipole moment>
1.44370154675

$$$$
546
 OpenBabel08101817183D

 11 11  0  0  0  0  0  0  0  0999 V2000
   -0.0786    1.2175    0.0503 C   0  0  0  0  0  0  0  0  0  0  0  0
   -1.2630    0.4836   -0.0448 C   0  0  0  0  0  0  0  0  0  0  0  0
   -1.1741   -0.9054   -0.1024 C   0  0  0  0  0  0  0  0  0  0  0  0
   -0.0094   -1.5741   -0.0710 N   0  0  0  0  0  0  0  0  0  0  0  0
    1.0963   -0.8545    0.0195 C   0  0  0  0  0  0  0  0  0  0  0  0
    1.1379    0.5425    0.0841 C   0  0  0  0  0  0  0  0  0  0  0  0
    2.6081   -1.7361    0.0597 Cl  0  0  0  0  0  0  0  0  0  0  0  0
   -0.0989    2.3063    0.0980 H   0  0  0  0  0  0  0  0  0  0  0  0
   -2.2341    0.9756   -0.0738 H   0  0  0  0  0  0  0  0  0  0  0  0
   -2.0722   -1.5224   -0.1773 H   0  0  0  0  0  0  0  0  0  0  0  0
    2.0879    1.0671    0.1578 H   0  0  0  0  0  0  0  0  0  0  0  0
  1  6  1  0  0  0  0
  1  8  1  0  0  0  0
  2  1  2  0  0  0  0
  3  4  2  0  0  0  0
  3  2  1  0  0  0  0
  4  5  1  0  0  0  0
  5  7  1  0  0  0  0
  5  6  2  0  0  0  0
  6 11  1  0  0  0  0
  9  2  1  0  0  0  0
 10  3  1  0  0  0  0
M  END
>  <Charge>
0.0

>  <InChI>
1/C5H4ClN/c6-5-3-1-2-4-7-5/h1-4H

>  <Molecular Formula>
C_{5}H_{4}ClN

>  <Name>
2-CHLOROPYRIDINE

>  <SMILES>
c1ccnc(c1)Cl

>  <logK (CHLOROFORM)>
5.22

>  <mean polarizability>
11.8

>  <dipole moment>
3.22346167408

$$$$
547
 OpenBabel08101817183D

 11 11  0  0  0  0  0  0  0  0999 V2000
   -0.4524    1.1409    0.0594 C   0  0  0  0  0  0  0  0  0  0  0  0
   -1.3629    0.0819    0.0865 C   0  0  0  0  0  0  0  0  0  0  0  0
   -0.8655   -1.2174    0.0200 C   0  0  0  0  0  0  0  0  0  0  0  0
    0.4460   -1.4993   -0.0688 N   0  0  0  0  0  0  0  0  0  0  0  0
    1.2818   -0.4806   -0.0924 C   0  0  0  0  0  0  0  0  0  0  0  0
    0.9094    0.8658   -0.0324 C   0  0  0  0  0  0  0  0  0  0  0  0
    3.1550   -0.9004   -0.2198 Br  0  0  0  0  0  0  0  0  0  0  0  0
   -0.7966    2.1740    0.1090 H   0  0  0  0  0  0  0  0  0  0  0  0
   -2.4351    0.2584    0.1577 H   0  0  0  0  0  0  0  0  0  0  0  0
   -1.5365   -2.0788    0.0378 H   0  0  0  0  0  0  0  0  0  0  0  0
    1.6567    1.6556   -0.0570 H   0  0  0  0  0  0  0  0  0  0  0  0
  1  2  1  0  0  0  0
  1  8  1  0  0  0  0
  2  9  1  0  0  0  0
  3 10  1  0  0  0  0
  3  2  2  0  0  0  0
  4  3  1  0  0  0  0
  5  4  2  0  0  0  0
  5  6  1  0  0  0  0
  6  1  2  0  0  0  0
  7  5  1  0  0  0  0
 11  6  1  0  0  0  0
M  END
>  <Charge>
0.0

>  <InChI>
1/C5H4BrN/c6-5-3-1-2-4-7-5/h1-4H

>  <Molecular Formula>
C_{5}H_{4}BrN

>  <Name>
2-BROMOPYRIDINE

>  <SMILES>
c1ccnc(c1)Br

>  <logK (CHLOROFORM)>
5.86

>  <mean polarizability>
12.66

>  <dipole moment>
3.26459471643

$$$$
548
 OpenBabel08101817183D

 15 15  0  0  0  0  0  0  0  0999 V2000
    2.6825   -0.1628   -0.1722 C   0  0  0  0  0  0  0  0  0  0  0  0
    1.5381   -0.9970    0.0663 O   0  0  0  0  0  0  0  0  0  0  0  0
    0.3230   -0.3999   -0.0093 C   0  0  0  0  0  0  0  0  0  0  0  0
   -0.7983   -1.2193    0.2251 C   0  0  0  0  0  0  0  0  0  0  0  0
   -2.0505   -0.6319    0.1524 C   0  0  0  0  0  0  0  0  0  0  0  0
   -2.1547    0.7341   -0.1467 C   0  0  0  0  0  0  0  0  0  0  0  0
   -0.9807    1.4453   -0.3592 C   0  0  0  0  0  0  0  0  0  0  0  0
    0.2466    0.8971   -0.2941 N   0  0  0  0  0  0  0  0  0  0  0  0
    2.6520    0.2694   -1.1808 H   0  0  0  0  0  0  0  0  0  0  0  0
    3.5460   -0.8265   -0.0649 H   0  0  0  0  0  0  0  0  0  0  0  0
    2.7328    0.6555    0.5578 H   0  0  0  0  0  0  0  0  0  0  0  0
   -0.6603   -2.2748    0.4530 H   0  0  0  0  0  0  0  0  0  0  0  0
   -2.9448   -1.2305    0.3270 H   0  0  0  0  0  0  0  0  0  0  0  0
   -3.1219    1.2295   -0.2121 H   0  0  0  0  0  0  0  0  0  0  0  0
   -1.0100    2.5119   -0.5950 H   0  0  0  0  0  0  0  0  0  0  0  0
  1 10  1  0  0  0  0
  1  2  1  0  0  0  0
  1 11  1  0  0  0  0
  3  2  1  0  0  0  0
  3  4  2  0  0  0  0
  4 12  1  0  0  0  0
  5  4  1  0  0  0  0
  5 13  1  0  0  0  0
  6  5  2  0  0  0  0
  7  8  2  0  0  0  0
  7  6  1  0  0  0  0
  8  3  1  0  0  0  0
  9  1  1  0  0  0  0
 14  6  1  0  0  0  0
 15  7  1  0  0  0  0
M  END
>  <Charge>
0.0

>  <InChI>
1/C6H7NO/c1-8-6-4-2-3-5-7-6/h2-5H,1H3

>  <Molecular Formula>
C_{6}H_{7}NO

>  <Name>
2-METHOXYPYRIDINE

>  <SMILES>
COc1ccccn1

>  <logK (CHLOROFORM)>
4.94

>  <mean polarizability>
12.48

>  <dipole moment>
0.576500065227

$$$$
549
 OpenBabel08101817183D

 15 15  0  0  0  0  0  0  0  0999 V2000
    2.1485   -0.1755    0.0025 C   0  0  0  0  0  0  0  0  0  0  0  0
    0.6910   -0.0612    0.0013 N   0  0  0  0  0  0  0  0  0  0  0  0
   -0.0710   -1.1869    0.0972 C   0  0  0  0  0  0  0  0  0  0  0  0
   -1.4388   -1.1419    0.1008 C   0  0  0  0  0  0  0  0  0  0  0  0
   -2.0667    0.1261    0.0008 C   0  0  0  0  0  0  0  0  0  0  0  0
   -1.3192    1.2684   -0.0962 C   0  0  0  0  0  0  0  0  0  0  0  0
    0.1274    1.2523   -0.1025 C   0  0  0  0  0  0  0  0  0  0  0  0
    0.8582    2.2416   -0.1869 O   0  0  0  0  0  0  0  0  0  0  0  0
    2.5534    0.8374   -0.0822 H   0  0  0  0  0  0  0  0  0  0  0  0
    2.4946   -0.6355    0.9370 H   0  0  0  0  0  0  0  0  0  0  0  0
    2.4848   -0.7812   -0.8487 H   0  0  0  0  0  0  0  0  0  0  0  0
    0.4828   -2.1225    0.1706 H   0  0  0  0  0  0  0  0  0  0  0  0
   -2.0111   -2.0623    0.1789 H   0  0  0  0  0  0  0  0  0  0  0  0
   -3.1560    0.1890    0.0013 H   0  0  0  0  0  0  0  0  0  0  0  0
   -1.7776    2.2524   -0.1737 H   0  0  0  0  0  0  0  0  0  0  0  0
  1 10  1  0  0  0  0
  2  1  1  0  0  0  0
  2  3  1  0  0  0  0
  3  4  2  0  0  0  0
  3 12  1  0  0  0  0
  4 13  1  0  0  0  0
  5 14  1  0  0  0  0
  5  4  1  0  0  0  0
  6  5  2  0  0  0  0
  7  6  1  0  0  0  0
  7  2  1  0  0  0  0
  8  7  2  0  0  0  0
  9  1  1  0  0  0  0
 11  1  1  0  0  0  0
 15  6  1  0  0  0  0
M  END
>  <Charge>
0.0

>  <InChI>
1/C6H7NO/c1-7-5-3-2-4-6(7)8/h2-5H,1H3

>  <Molecular Formula>
C_{6}H_{7}NO

>  <Name>
N-METHYL-2-PYRIDONE

>  <SMILES>
Cn1ccccc1=O

>  <logK (CHLOROFORM)>
6.86

>  <mean polarizability>
12.54

>  <dipole moment>
3.9329423583

$$$$
550
 OpenBabel08101817183D

 17 18  0  0  0  0  0  0  0  0999 V2000
    2.1512   -0.8845   -0.1361 C   0  0  0  0  0  0  0  0  0  0  0  0
    2.3093    0.5045    0.0907 C   0  0  0  0  0  0  0  0  0  0  0  0
    1.2031    1.3172    0.2189 C   0  0  0  0  0  0  0  0  0  0  0  0
   -0.1003    0.7692    0.1247 C   0  0  0  0  0  0  0  0  0  0  0  0
   -1.2773    1.5565    0.2485 C   0  0  0  0  0  0  0  0  0  0  0  0
   -2.5065    1.0830    0.1670 N   0  0  0  0  0  0  0  0  0  0  0  0
   -2.6460   -0.2551   -0.0512 C   0  0  0  0  0  0  0  0  0  0  0  0
   -1.5881   -1.1267   -0.1891 C   0  0  0  0  0  0  0  0  0  0  0  0
   -0.2622   -0.6339   -0.1041 C   0  0  0  0  0  0  0  0  0  0  0  0
    0.8947   -1.4447   -0.2319 C   0  0  0  0  0  0  0  0  0  0  0  0
    3.0357   -1.5141   -0.2355 H   0  0  0  0  0  0  0  0  0  0  0  0
    3.3115    0.9267    0.1631 H   0  0  0  0  0  0  0  0  0  0  0  0
    1.3155    2.3885    0.3937 H   0  0  0  0  0  0  0  0  0  0  0  0
   -1.1754    2.6333    0.4241 H   0  0  0  0  0  0  0  0  0  0  0  0
   -3.6749   -0.6156   -0.1136 H   0  0  0  0  0  0  0  0  0  0  0  0
   -1.7654   -2.1892   -0.3626 H   0  0  0  0  0  0  0  0  0  0  0  0
    0.7753   -2.5149   -0.4065 H   0  0  0  0  0  0  0  0  0  0  0  0
  1  2  1  0  0  0  0
  2 12  1  0  0  0  0
  2  3  2  0  0  0  0
  3 13  1  0  0  0  0
  4  3  1  0  0  0  0
  4  5  2  0  0  0  0
  5 14  1  0  0  0  0
  6  5  1  0  0  0  0
  7  6  2  0  0  0  0
  8  9  2  0  0  0  0
  8  7  1  0  0  0  0
  9  4  1  0  0  0  0
 10  1  2  0  0  0  0
 10  9  1  0  0  0  0
 11  1  1  0  0  0  0
 15  7  1  0  0  0  0
 16  8  1  0  0  0  0
 17 10  1  0  0  0  0
M  END
>  <Charge>
0.0

>  <InChI>
1/C9H7N/c1-2-4-9-7-10-6-5-8(9)3-1/h1-7H

>  <Molecular Formula>
C_{9}H_{7}N

>  <Name>
ISOQUINOLINE

>  <SMILES>
c1ccc2cnccc2c1

>  <logK (CHLOROFORM)>
6.9

>  <mean polarizability>
16.88

>  <dipole moment>
2.58592193795

$$$$
551
 OpenBabel08101817183D

 10 10  0  0  0  0  0  0  0  0999 V2000
    0.0914    1.1945    0.0247 C   0  0  0  0  0  0  0  0  0  0  0  0
   -1.1149    0.4392   -0.0051 C   0  0  0  0  0  0  0  0  0  0  0  0
   -0.7662   -0.8980   -0.0271 C   0  0  0  0  0  0  0  0  0  0  0  0
    0.6069   -0.9687   -0.0117 N   0  0  0  0  0  0  0  0  0  0  0  0
    1.1425    0.2972    0.0199 C   0  0  0  0  0  0  0  0  0  0  0  0
    0.1834    2.2748    0.0472 H   0  0  0  0  0  0  0  0  0  0  0  0
   -2.1272    0.8281   -0.0098 H   0  0  0  0  0  0  0  0  0  0  0  0
   -1.3740   -1.7946   -0.0523 H   0  0  0  0  0  0  0  0  0  0  0  0
    1.1433   -1.8251   -0.0219 H   0  0  0  0  0  0  0  0  0  0  0  0
    2.2147    0.4525    0.0361 H   0  0  0  0  0  0  0  0  0  0  0  0
  1  6  1  0  0  0  0
  2  1  1  0  0  0  0
  3  4  1  0  0  0  0
  3  2  2  0  0  0  0
  4  5  1  0  0  0  0
  5  1  2  0  0  0  0
  5 10  1  0  0  0  0
  7  2  1  0  0  0  0
  8  3  1  0  0  0  0
  9  4  1  0  0  0  0
M  END
>  <Charge>
0.0

>  <InChI>
1/C4H5N/c1-2-4-5-3-1/h1-5H

>  <Molecular Formula>
C_{4}H_{5}N

>  <Name>
PYRROLE

>  <SMILES>
c1cc[nH]c1

>  <logK (CHLOROFORM)>
4.12

>  <mean polarizability>
7.85

>  <dipole moment>
1.87209740967

$$$$
552
 OpenBabel08101817183D

  3  2  0  0  0  0  0  0  0  0999 V2000
   -0.0277    0.0002   -0.0000 C   0  0  0  0  0  0  0  0  0  0  0  0
    1.1297   -0.0089    0.0000 N   0  0  0  0  0  0  0  0  0  0  0  0
   -1.1020    0.0087    0.0000 H   0  0  0  0  0  0  0  0  0  0  0  0
  1  2  3  0  0  0  0
  1  3  1  0  0  0  0
M  END
>  <Charge>
0.0

>  <InChI>
1/CHN/c1-2/h1H

>  <Molecular Formula>
CHN

>  <Name>
HYDROGEN CYANIDE

>  <SMILES>
C#N

>  <logK (CHLOROFORM)>
2.3

>  <mean polarizability>
2.45

>  <dipole moment>
2.94404174886

$$$$
553
 OpenBabel08101817183D

 19 18  0  0  0  0  0  0  0  0999 V2000
   -3.0251    0.3911    0.1094 C   0  0  0  0  0  0  0  0  0  0  0  0
   -1.6829    1.0706   -0.1435 C   0  0  0  0  0  0  0  0  0  0  0  0
   -0.6568    0.6773    0.7663 O   0  0  0  0  0  0  0  0  0  0  0  0
   -0.1339   -0.6254    0.5247 C   0  0  0  0  0  0  0  0  0  0  0  0
    1.1098   -0.7521    1.1362 O   0  0  0  0  0  0  0  0  0  0  0  0
    2.1619    0.0079    0.5106 C   0  0  0  0  0  0  0  0  0  0  0  0
    2.7867   -0.7263   -0.6675 C   0  0  0  0  0  0  0  0  0  0  0  0
   -3.7903    0.8078   -0.5607 H   0  0  0  0  0  0  0  0  0  0  0  0
   -3.3494    0.5539    1.1457 H   0  0  0  0  0  0  0  0  0  0  0  0
   -2.9781   -0.6909   -0.0724 H   0  0  0  0  0  0  0  0  0  0  0  0
   -1.7784    2.1577   -0.0145 H   0  0  0  0  0  0  0  0  0  0  0  0
   -1.3505    0.8849   -1.1839 H   0  0  0  0  0  0  0  0  0  0  0  0
   -0.7683   -1.4019    0.9830 H   0  0  0  0  0  0  0  0  0  0  0  0
   -0.0859   -0.7886   -0.5752 H   0  0  0  0  0  0  0  0  0  0  0  0
    2.9055    0.1667    1.3026 H   0  0  0  0  0  0  0  0  0  0  0  0
    1.7764    0.9958    0.2151 H   0  0  0  0  0  0  0  0  0  0  0  0
    3.6095   -0.1312   -1.0880 H   0  0  0  0  0  0  0  0  0  0  0  0
    3.1896   -1.6970   -0.3511 H   0  0  0  0  0  0  0  0  0  0  0  0
    2.0603   -0.9005   -1.4728 H   0  0  0  0  0  0  0  0  0  0  0  0
  1  9  1  0  0  0  0
  2 11  1  0  0  0  0
  2  1  1  0  0  0  0
  2  3  1  0  0  0  0
  4  3  1  0  0  0  0
  4 13  1  0  0  0  0
  4  5  1  0  0  0  0
  6  5  1  0  0  0  0
  6 15  1  0  0  0  0
  7 18  1  0  0  0  0
  7  6  1  0  0  0  0
  8  1  1  0  0  0  0
 10  1  1  0  0  0  0
 12  2  1  0  0  0  0
 14  4  1  0  0  0  0
 16  6  1  0  0  0  0
 17  7  1  0  0  0  0
 19  7  1  0  0  0  0
M  END
>  <Charge>
0.0

>  <InChI>
1/C5H12O2/c1-3-6-5-7-4-2/h3-5H2,1-2H3

>  <Molecular Formula>
C_{5}H_{12}O_{2}

>  <Name>
DIETHOXYMETHANE

>  <SMILES>
CCOCOCC

>  <logK (1-CHLOROBUTANE)>
3.42

>  <logK (CARBON TETRACHLORIDE)>
3.64

>  <logK (DICHLOROMETHANE)>
4.009

>  <mean polarizability>
11.6

>  <dipole moment>
1.96250831879

$$$$
554
 OpenBabel08101817183D

 16 15  0  0  0  0  0  0  0  0999 V2000
   -2.6814   -0.1505    0.6159 C   0  0  0  0  0  0  0  0  0  0  0  0
   -1.4027    0.3698    0.3035 O   0  0  0  0  0  0  0  0  0  0  0  0
   -0.7532   -0.3891   -0.7036 C   0  0  0  0  0  0  0  0  0  0  0  0
    0.6312    0.1649   -0.9511 C   0  0  0  0  0  0  0  0  0  0  0  0
    1.4939   -0.2017    0.1136 O   0  0  0  0  0  0  0  0  0  0  0  0
    2.7888    0.3481   -0.0414 C   0  0  0  0  0  0  0  0  0  0  0  0
   -3.1122    0.4905    1.3936 H   0  0  0  0  0  0  0  0  0  0  0  0
   -2.6167   -1.1861    0.9979 H   0  0  0  0  0  0  0  0  0  0  0  0
   -3.3503   -0.1458   -0.2654 H   0  0  0  0  0  0  0  0  0  0  0  0
   -0.6762   -1.4515   -0.4007 H   0  0  0  0  0  0  0  0  0  0  0  0
   -1.3316   -0.3483   -1.6488 H   0  0  0  0  0  0  0  0  0  0  0  0
    0.5759    1.2669   -1.0446 H   0  0  0  0  0  0  0  0  0  0  0  0
    1.0135   -0.2370   -1.9113 H   0  0  0  0  0  0  0  0  0  0  0  0
    3.2710   -0.0001   -0.9743 H   0  0  0  0  0  0  0  0  0  0  0  0
    3.3877    0.0166    0.8145 H   0  0  0  0  0  0  0  0  0  0  0  0
    2.7621    1.4534   -0.0556 H   0  0  0  0  0  0  0  0  0  0  0  0
  1  8  1  0  0  0  0
  1  7  1  0  0  0  0
  2  1  1  0  0  0  0
  3 10  1  0  0  0  0
  3  2  1  0  0  0  0
  4  3  1  0  0  0  0
  4  5  1  0  0  0  0
  6  5  1  0  0  0  0
  6 15  1  0  0  0  0
  9  1  1  0  0  0  0
 11  3  1  0  0  0  0
 12  4  1  0  0  0  0
 13  4  1  0  0  0  0
 14  6  1  0  0  0  0
 16  6  1  0  0  0  0
M  END
>  <Charge>
0.0

>  <InChI>
1/C4H10O2/c1-5-3-4-6-2/h3-4H2,1-2H3

>  <Molecular Formula>
C_{4}H_{10}O_{2}

>  <Name>
DIMETHOXYETHANE

>  <SMILES>
COCCOC

>  <logK (1-CHLOROBUTANE)>
3.376

>  <logK (CARBON TETRACHLORIDE)>
3.4

>  <logK (DICHLOROETHANE)>
3.55

>  <logK (DICHLOROMETHANE)>
4.266

>  <mean polarizability>
9.91

>  <dipole moment>
1.30030337292

$$$$
555
 OpenBabel08101817183D

 20 20  0  0  0  0  0  0  0  0999 V2000
    3.7370    0.0601    0.1684 C   0  0  0  0  0  0  0  0  0  0  0  0
    2.3533    0.0968   -0.4602 C   0  0  0  0  0  0  0  0  0  0  0  0
    2.1993    0.1981   -1.6732 O   0  0  0  0  0  0  0  0  0  0  0  0
    1.3156    0.0002    0.4425 N   0  0  0  0  0  0  0  0  0  0  0  0
   -0.0751   -0.0123    0.2069 C   0  0  0  0  0  0  0  0  0  0  0  0
   -0.9228   -0.1333    1.3206 C   0  0  0  0  0  0  0  0  0  0  0  0
   -2.3045   -0.1553    1.1756 C   0  0  0  0  0  0  0  0  0  0  0  0
   -2.8691   -0.0565   -0.1000 C   0  0  0  0  0  0  0  0  0  0  0  0
   -2.0325    0.0653   -1.2126 C   0  0  0  0  0  0  0  0  0  0  0  0
   -0.6454    0.0889   -1.0706 C   0  0  0  0  0  0  0  0  0  0  0  0
   -4.2385   -0.0846   -0.1940 O   0  0  0  0  0  0  0  0  0  0  0  0
    4.2932    0.9465   -0.1603 H   0  0  0  0  0  0  0  0  0  0  0  0
    4.2706   -0.8198   -0.2135 H   0  0  0  0  0  0  0  0  0  0  0  0
    3.7359    0.0254    1.2656 H   0  0  0  0  0  0  0  0  0  0  0  0
    1.5821   -0.0762    1.4174 H   0  0  0  0  0  0  0  0  0  0  0  0
   -0.4918   -0.2133    2.3211 H   0  0  0  0  0  0  0  0  0  0  0  0
   -2.9555   -0.2469    2.0439 H   0  0  0  0  0  0  0  0  0  0  0  0
   -2.4675    0.1433   -2.2117 H   0  0  0  0  0  0  0  0  0  0  0  0
    0.0021    0.1840   -1.9367 H   0  0  0  0  0  0  0  0  0  0  0  0
   -4.4864   -0.0105   -1.1292 H   0  0  0  0  0  0  0  0  0  0  0  0
  1 14  1  0  0  0  0
  2  1  1  0  0  0  0
  2  4  1  0  0  0  0
  3  2  2  0  0  0  0
  4 15  1  0  0  0  0
  5  4  1  0  0  0  0
  5  6  2  0  0  0  0
  6 16  1  0  0  0  0
  7  6  1  0  0  0  0
  7 17  1  0  0  0  0
  8  7  2  0  0  0  0
  9 10  2  0  0  0  0
  9  8  1  0  0  0  0
 10  5  1  0  0  0  0
 11  8  1  0  0  0  0
 12  1  1  0  0  0  0
 13  1  1  0  0  0  0
 18  9  1  0  0  0  0
 19 10  1  0  0  0  0
 20 11  1  0  0  0  0
M  END
>  <Charge>
0.0

>  <InChI>
1/C8H9NO2/c1-6(10)9-7-2-4-8(11)5-3-7/h2-5,11H,1H3,(H,9,10)

>  <Molecular Formula>
C_{8}H_{9}NO_{2}

>  <Name>
PARACETAMOL

>  <SMILES>
CC(=O)Nc1ccc(cc1)O

>  <logK (DICHLOROMETHANE)>
9.375

>  <mean polarizability>
17.99

>  <dipole moment>
2.17716259958

$$$$
556
 OpenBabel08101817183D

 24 24  0  0  0  0  0  0  0  0999 V2000
   -1.2646    0.6427    1.1948 C   0  0  0  0  0  0  0  0  0  0  0  0
   -1.9119    0.3217   -0.0663 N   0  0  0  0  0  0  0  0  0  0  0  0
   -3.1431   -0.4494    0.0475 C   0  0  0  0  0  0  0  0  0  0  0  0
   -1.2849    0.5476   -1.2750 C   0  0  0  0  0  0  0  0  0  0  0  0
   -0.0379    0.7256   -1.5204 N   0  0  0  0  0  0  0  0  0  0  0  0
    1.0005    0.2286   -0.7446 C   0  0  0  0  0  0  0  0  0  0  0  0
    1.0540   -1.1087   -0.2974 C   0  0  0  0  0  0  0  0  0  0  0  0
    2.1615   -1.5837    0.3963 C   0  0  0  0  0  0  0  0  0  0  0  0
    3.2487   -0.7501    0.6704 C   0  0  0  0  0  0  0  0  0  0  0  0
    3.2136    0.5780    0.2179 C   0  0  0  0  0  0  0  0  0  0  0  0
    2.1104    1.0540   -0.4870 C   0  0  0  0  0  0  0  0  0  0  0  0
    4.5425    1.6539    0.5148 Cl  0  0  0  0  0  0  0  0  0  0  0  0
    4.6099   -1.3785    1.5412 Cl  0  0  0  0  0  0  0  0  0  0  0  0
   -2.1284    0.6611   -2.3483 O   0  0  0  0  0  0  0  0  0  0  0  0
   -0.8052   -0.2396    1.6693 H   0  0  0  0  0  0  0  0  0  0  0  0
   -2.0183    1.0573    1.8806 H   0  0  0  0  0  0  0  0  0  0  0  0
   -0.4863    1.3939    1.0361 H   0  0  0  0  0  0  0  0  0  0  0  0
   -3.9565    0.1494    0.4886 H   0  0  0  0  0  0  0  0  0  0  0  0
   -2.9803   -1.3252    0.6974 H   0  0  0  0  0  0  0  0  0  0  0  0
   -3.4595   -0.8189   -0.9332 H   0  0  0  0  0  0  0  0  0  0  0  0
    0.2293   -1.7843   -0.5250 H   0  0  0  0  0  0  0  0  0  0  0  0
    2.1994   -2.6194    0.7312 H   0  0  0  0  0  0  0  0  0  0  0  0
    2.1061    2.0799   -0.8503 H   0  0  0  0  0  0  0  0  0  0  0  0
   -2.9988    0.9640   -2.0388 H   0  0  0  0  0  0  0  0  0  0  0  0
  1 15  1  0  0  0  0
  1 16  1  0  0  0  0
  2  3  1  0  0  0  0
  2  1  1  0  0  0  0
  3 18  1  0  0  0  0
  3 19  1  0  0  0  0
  4  2  1  0  0  0  0
  5  4  2  0  0  0  0
  5  6  1  0  0  0  0
  6 11  2  0  0  0  0
  6  7  1  0  0  0  0
  7  8  2  0  0  0  0
  8  9  1  0  0  0  0
  8 22  1  0  0  0  0
  9 13  1  0  0  0  0
 10 12  1  0  0  0  0
 10  9  2  0  0  0  0
 11 10  1  0  0  0  0
 14 24  1  0  0  0  0
 14  4  1  0  0  0  0
 17  1  1  0  0  0  0
 20  3  1  0  0  0  0
 21  7  1  0  0  0  0
 23 11  1  0  0  0  0
M  END
>  <Charge>
0.0

>  <InChI>
1/C9H10Cl2N2O/c1-13(2)9(14)12-6-3-4-7(10)8(11)5-6/h3-5H,1-2H3,(H,12,14)

>  <Molecular Formula>
C_{9}H_{10}Cl_{2}N_{2}O

>  <Name>
DIURON

>  <SMILES>
CN(C)/C(=N\c1ccc(c(c1)Cl)Cl)/O

>  <logK (1-CHLOROBUTANE)>
9.755

>  <dipole moment>
6.8019770503

>  <mean polarizability>
25.64

$$$$
557
 OpenBabel08101817183D

  5  4  0  0  0  0  0  0  0  0999 V2000
   -0.0629   -0.1590    0.0022 C   0  0  0  0  0  0  0  0  0  0  0  0
   -1.3943    1.0041   -0.0806 Cl  0  0  0  0  0  0  0  0  0  0  0  0
    1.7044    0.6791    0.0438 Br  0  0  0  0  0  0  0  0  0  0  0  0
   -0.0900   -0.7880   -0.8882 H   0  0  0  0  0  0  0  0  0  0  0  0
   -0.1572   -0.7361    0.9226 H   0  0  0  0  0  0  0  0  0  0  0  0
  1  3  1  0  0  0  0
  1  5  1  0  0  0  0
  2  1  1  0  0  0  0
  4  1  1  0  0  0  0
M  END
>  <Charge>
0.0

>  <InChI>
1/CH2BrCl/c2-1-3/h1H2

>  <Molecular Formula>
CH_{2}BrCl

>  <Name>
BROMO(CHLORO)METHANE

>  <SMILES>
C(Cl)Br

>  <logK (CARBON TETRACHLORIDE)>
2.872

>  <mean polarizability>
7.14

>  <dipole moment>
1.50364247274

$$$$
558
 OpenBabel08101817183D

 13 12  0  0  0  0  0  0  0  0999 V2000
   -2.0456    0.2851    0.4495 C   0  0  0  0  0  0  0  0  0  0  0  0
   -1.2093   -0.8656    0.5834 O   0  0  0  0  0  0  0  0  0  0  0  0
   -0.0247   -0.7722   -0.1316 C   0  0  0  0  0  0  0  0  0  0  0  0
    0.8189    0.2152    0.4479 O   0  0  0  0  0  0  0  0  0  0  0  0
    2.0170    0.3815   -0.2914 C   0  0  0  0  0  0  0  0  0  0  0  0
   -2.2549    0.4945   -0.6144 H   0  0  0  0  0  0  0  0  0  0  0  0
   -2.9839    0.0508    0.9636 H   0  0  0  0  0  0  0  0  0  0  0  0
   -1.5858    1.1721    0.9083 H   0  0  0  0  0  0  0  0  0  0  0  0
    0.4547   -1.7668   -0.0795 H   0  0  0  0  0  0  0  0  0  0  0  0
   -0.2145   -0.5041   -1.1974 H   0  0  0  0  0  0  0  0  0  0  0  0
    1.8148    0.6860   -1.3351 H   0  0  0  0  0  0  0  0  0  0  0  0
    2.6186   -0.5459   -0.3087 H   0  0  0  0  0  0  0  0  0  0  0  0
    2.5947    1.1694    0.2039 H   0  0  0  0  0  0  0  0  0  0  0  0
  1  2  1  0  0  0  0
  1  8  1  0  0  0  0
  1  7  1  0  0  0  0
  3  9  1  0  0  0  0
  3  4  1  0  0  0  0
  3  2  1  0  0  0  0
  5 13  1  0  0  0  0
  5  4  1  0  0  0  0
  6  1  1  0  0  0  0
 10  3  1  0  0  0  0
 11  5  1  0  0  0  0
 12  5  1  0  0  0  0
M  END
>  <Charge>
0.0

>  <InChI>
1/C3H8O2/c1-4-3-5-2/h3H2,1-2H3

>  <Molecular Formula>
C_{3}H_{8}O_{2}

>  <Name>
DIMETHOXYMETHANE

>  <SMILES>
COCOC

>  <logK (CARBON TETRACHLORIDE)>
2.68

>  <mean polarizability>
7.84

>  <dipole moment>
1.66868481203

$$$$
559
 OpenBabel08101817183D

 19 18  0  0  0  0  0  0  0  0999 V2000
   -2.9661    0.9240    0.8241 C   0  0  0  0  0  0  0  0  0  0  0  0
   -2.1894    0.1832   -0.2464 C   0  0  0  0  0  0  0  0  0  0  0  0
   -0.8596   -0.0248    0.2146 O   0  0  0  0  0  0  0  0  0  0  0  0
   -0.0594   -0.7057   -0.7367 C   0  0  0  0  0  0  0  0  0  0  0  0
    1.3532   -0.8409   -0.2145 C   0  0  0  0  0  0  0  0  0  0  0  0
    2.0167    0.4102   -0.2961 O   0  0  0  0  0  0  0  0  0  0  0  0
    3.3195    0.3561    0.2538 C   0  0  0  0  0  0  0  0  0  0  0  0
   -2.9941    0.3441    1.7555 H   0  0  0  0  0  0  0  0  0  0  0  0
   -3.9985    1.0975    0.4930 H   0  0  0  0  0  0  0  0  0  0  0  0
   -2.5017    1.8954    1.0362 H   0  0  0  0  0  0  0  0  0  0  0  0
   -2.6659   -0.7921   -0.4727 H   0  0  0  0  0  0  0  0  0  0  0  0
   -2.1725    0.7634   -1.1900 H   0  0  0  0  0  0  0  0  0  0  0  0
   -0.4687   -1.7173   -0.9329 H   0  0  0  0  0  0  0  0  0  0  0  0
   -0.0440   -0.1566   -1.6981 H   0  0  0  0  0  0  0  0  0  0  0  0
    1.8905   -1.6006   -0.8177 H   0  0  0  0  0  0  0  0  0  0  0  0
    1.3264   -1.1991    0.8329 H   0  0  0  0  0  0  0  0  0  0  0  0
    3.9548   -0.3814   -0.2728 H   0  0  0  0  0  0  0  0  0  0  0  0
    3.7618    1.3527    0.1404 H   0  0  0  0  0  0  0  0  0  0  0  0
    3.2970    0.0920    1.3273 H   0  0  0  0  0  0  0  0  0  0  0  0
  1 10  1  0  0  0  0
  1  8  1  0  0  0  0
  2  3  1  0  0  0  0
  2  1  1  0  0  0  0
  4  5  1  0  0  0  0
  4  3  1  0  0  0  0
  5 16  1  0  0  0  0
  6  5  1  0  0  0  0
  6  7  1  0  0  0  0
  7 19  1  0  0  0  0
  9  1  1  0  0  0  0
 11  2  1  0  0  0  0
 12  2  1  0  0  0  0
 13  4  1  0  0  0  0
 14  4  1  0  0  0  0
 15  5  1  0  0  0  0
 17  7  1  0  0  0  0
 18  7  1  0  0  0  0
M  END
>  <Charge>
0.0

>  <InChI>
1/C5H12O2/c1-3-7-5-4-6-2/h3-5H2,1-2H3

>  <Molecular Formula>
C_{5}H_{12}O_{2}

>  <Name>
2,5-DIOXAHEPTANE

>  <SMILES>
CCOCCOC

>  <logK (CARBON TETRACHLORIDE)>
4.29

>  <mean polarizability>
11.87

>  <dipole moment>
1.1803465835

$$$$
560
 OpenBabel08101817183D

 22 23  0  0  0  0  0  0  0  0999 V2000
   -3.5259   -0.4929   -0.1398 C   0  0  0  0  0  0  0  0  0  0  0  0
   -2.8803    0.2288   -1.1457 C   0  0  0  0  0  0  0  0  0  0  0  0
   -1.5005    0.4219   -1.0971 C   0  0  0  0  0  0  0  0  0  0  0  0
   -0.7332   -0.1021   -0.0423 C   0  0  0  0  0  0  0  0  0  0  0  0
   -1.3977   -0.8263    0.9627 C   0  0  0  0  0  0  0  0  0  0  0  0
   -2.7776   -1.0195    0.9149 C   0  0  0  0  0  0  0  0  0  0  0  0
    0.7331    0.1027    0.0087 C   0  0  0  0  0  0  0  0  0  0  0  0
    1.3088    1.3161   -0.4062 C   0  0  0  0  0  0  0  0  0  0  0  0
    2.6888    1.5091   -0.3584 C   0  0  0  0  0  0  0  0  0  0  0  0
    3.5260    0.4925    0.1053 C   0  0  0  0  0  0  0  0  0  0  0  0
    2.9693   -0.7186    0.5209 C   0  0  0  0  0  0  0  0  0  0  0  0
    1.5893   -0.9108    0.4732 C   0  0  0  0  0  0  0  0  0  0  0  0
   -4.6047   -0.6440   -0.1775 H   0  0  0  0  0  0  0  0  0  0  0  0
   -3.4532    0.6366   -1.9791 H   0  0  0  0  0  0  0  0  0  0  0  0
   -1.0037    0.9646   -1.9020 H   0  0  0  0  0  0  0  0  0  0  0  0
   -0.8275   -1.2198    1.8048 H   0  0  0  0  0  0  0  0  0  0  0  0
   -3.2724   -1.5768    1.7109 H   0  0  0  0  0  0  0  0  0  0  0  0
    0.6629    2.1265   -0.7455 H   0  0  0  0  0  0  0  0  0  0  0  0
    3.1115    2.4626   -0.6766 H   0  0  0  0  0  0  0  0  0  0  0  0
    4.6049    0.6431    0.1427 H   0  0  0  0  0  0  0  0  0  0  0  0
    3.6140   -1.5231    0.8760 H   0  0  0  0  0  0  0  0  0  0  0  0
    1.1682   -1.8702    0.7756 H   0  0  0  0  0  0  0  0  0  0  0  0
  1  6  2  0  0  0  0
  2  3  2  0  0  0  0
  2  1  1  0  0  0  0
  3  4  1  0  0  0  0
  4  7  1  0  0  0  0
  4  5  2  0  0  0  0
  5 16  1  0  0  0  0
  6  5  1  0  0  0  0
  6 17  1  0  0  0  0
  7 12  2  0  0  0  0
  8  9  2  0  0  0  0
  8  7  1  0  0  0  0
  9 10  1  0  0  0  0
 10 20  1  0  0  0  0
 10 11  2  0  0  0  0
 11 21  1  0  0  0  0
 12 11  1  0  0  0  0
 12 22  1  0  0  0  0
 13  1  1  0  0  0  0
 14  2  1  0  0  0  0
 15  3  1  0  0  0  0
 18  8  1  0  0  0  0
 19  9  1  0  0  0  0
M  END
>  <Charge>
0.0

>  <InChI>
1/C12H10/c1-3-7-11(8-4-1)12-9-5-2-6-10-12/h1-10H

>  <Molecular Formula>
C_{12}H_{10}

>  <Name>
BIPHENYL

>  <SMILES>
c1ccc(cc1)c2ccccc2

>  <logK (CARBON TETRACHLORIDE)>
6.76

>  <logK (DIMETHYLFORMAMIDE)>
6.84

>  <dipole moment>
0.000555841291912

>  <mean polarizability>
21.61

$$$$
561
 OpenBabel08101817183D

 24 26  0  0  0  0  0  0  0  0999 V2000
    3.4415   -0.9470    0.1150 C   0  0  0  0  0  0  0  0  0  0  0  0
    2.5401   -2.0261    0.0648 C   0  0  0  0  0  0  0  0  0  0  0  0
    1.1755   -1.7970    0.0170 C   0  0  0  0  0  0  0  0  0  0  0  0
    0.6461   -0.4861    0.0169 C   0  0  0  0  0  0  0  0  0  0  0  0
    1.5665    0.6062    0.0680 C   0  0  0  0  0  0  0  0  0  0  0  0
    2.9560    0.3468    0.1163 C   0  0  0  0  0  0  0  0  0  0  0  0
    1.0730    1.9505    0.0697 C   0  0  0  0  0  0  0  0  0  0  0  0
   -0.2638    2.2114    0.0235 C   0  0  0  0  0  0  0  0  0  0  0  0
   -1.2248    1.1511   -0.0286 C   0  0  0  0  0  0  0  0  0  0  0  0
   -0.7809   -0.2076   -0.0325 C   0  0  0  0  0  0  0  0  0  0  0  0
   -1.7627   -1.2235   -0.0847 C   0  0  0  0  0  0  0  0  0  0  0  0
   -3.1134   -0.9226   -0.1309 C   0  0  0  0  0  0  0  0  0  0  0  0
   -3.5446    0.4167   -0.1269 C   0  0  0  0  0  0  0  0  0  0  0  0
   -2.6099    1.4332   -0.0764 C   0  0  0  0  0  0  0  0  0  0  0  0
    4.5150   -1.1320    0.1527 H   0  0  0  0  0  0  0  0  0  0  0  0
    2.9164   -3.0491    0.0635 H   0  0  0  0  0  0  0  0  0  0  0  0
    0.5036   -2.6529   -0.0212 H   0  0  0  0  0  0  0  0  0  0  0  0
    3.6424    1.1943    0.1549 H   0  0  0  0  0  0  0  0  0  0  0  0
    1.7962    2.7668    0.1092 H   0  0  0  0  0  0  0  0  0  0  0  0
   -0.6283    3.2400    0.0254 H   0  0  0  0  0  0  0  0  0  0  0  0
   -1.4607   -2.2696   -0.0892 H   0  0  0  0  0  0  0  0  0  0  0  0
   -3.8455   -1.7293   -0.1705 H   0  0  0  0  0  0  0  0  0  0  0  0
   -4.6089    0.6490   -0.1633 H   0  0  0  0  0  0  0  0  0  0  0  0
   -2.9287    2.4769   -0.0726 H   0  0  0  0  0  0  0  0  0  0  0  0
  1  6  1  0  0  0  0
  1 15  1  0  0  0  0
  2  1  2  0  0  0  0
  3  2  1  0  0  0  0
  4  3  2  0  0  0  0
  4  5  1  0  0  0  0
  5  7  1  0  0  0  0
  5  6  2  0  0  0  0
  6 18  1  0  0  0  0
  7 19  1  0  0  0  0
  8 20  1  0  0  0  0
  8  7  2  0  0  0  0
  9  8  1  0  0  0  0
 10  9  1  0  0  0  0
 10  4  1  0  0  0  0
 11 10  2  0  0  0  0
 12 13  2  0  0  0  0
 12 11  1  0  0  0  0
 13 14  1  0  0  0  0
 14 24  1  0  0  0  0
 14  9  2  0  0  0  0
 16  2  1  0  0  0  0
 17  3  1  0  0  0  0
 21 11  1  0  0  0  0
 22 12  1  0  0  0  0
 23 13  1  0  0  0  0
M  END
>  <Charge>
0.0

>  <InChI>
1/C14H10/c1-3-7-13-11(5-1)9-10-12-6-2-4-8-14(12)13/h1-10H

>  <Molecular Formula>
C_{14}H_{10}

>  <Name>
PHENANTHRENE

>  <SMILES>
c1ccc2c(c1)ccc3c2cccc3

>  <logK (CARBON TETRACHLORIDE)>
8.052

>  <dipole moment>
0.0231857114524

>  <mean polarizability>
25.92

$$$$
562
 OpenBabel08101817183D

 24 26  0  0  0  0  0  0  0  0999 V2000
    3.6809    0.5293    0.3686 C   0  0  0  0  0  0  0  0  0  0  0  0
    3.6132   -0.8918    0.3282 C   0  0  0  0  0  0  0  0  0  0  0  0
    2.4009   -1.5272    0.2218 C   0  0  0  0  0  0  0  0  0  0  0  0
    1.1852   -0.7831    0.1494 C   0  0  0  0  0  0  0  0  0  0  0  0
   -0.0668   -1.4026    0.0408 C   0  0  0  0  0  0  0  0  0  0  0  0
   -1.2539   -0.6619   -0.0296 C   0  0  0  0  0  0  0  0  0  0  0  0
   -2.5347   -1.2819   -0.1405 C   0  0  0  0  0  0  0  0  0  0  0  0
   -3.6809   -0.5293   -0.2076 C   0  0  0  0  0  0  0  0  0  0  0  0
   -3.6132    0.8918   -0.1675 C   0  0  0  0  0  0  0  0  0  0  0  0
   -2.4009    1.5272   -0.0613 C   0  0  0  0  0  0  0  0  0  0  0  0
   -1.1851    0.7832    0.0111 C   0  0  0  0  0  0  0  0  0  0  0  0
    0.0668    1.4026    0.1200 C   0  0  0  0  0  0  0  0  0  0  0  0
    1.2539    0.6619    0.1905 C   0  0  0  0  0  0  0  0  0  0  0  0
    2.5346    1.2819    0.3016 C   0  0  0  0  0  0  0  0  0  0  0  0
    4.6515    1.0182    0.4532 H   0  0  0  0  0  0  0  0  0  0  0  0
    4.5329   -1.4746    0.3823 H   0  0  0  0  0  0  0  0  0  0  0  0
    2.3476   -2.6167    0.1907 H   0  0  0  0  0  0  0  0  0  0  0  0
   -0.1187   -2.4933    0.0099 H   0  0  0  0  0  0  0  0  0  0  0  0
   -2.5851   -2.3716   -0.1712 H   0  0  0  0  0  0  0  0  0  0  0  0
   -4.6515   -1.0182   -0.2921 H   0  0  0  0  0  0  0  0  0  0  0  0
   -4.5328    1.4746   -0.2216 H   0  0  0  0  0  0  0  0  0  0  0  0
   -2.3475    2.6167   -0.0304 H   0  0  0  0  0  0  0  0  0  0  0  0
    0.1187    2.4933    0.1510 H   0  0  0  0  0  0  0  0  0  0  0  0
    2.5850    2.3716    0.3325 H   0  0  0  0  0  0  0  0  0  0  0  0
  1 15  1  0  0  0  0
  2  1  1  0  0  0  0
  2 16  1  0  0  0  0
  3  2  2  0  0  0  0
  4 13  1  0  0  0  0
  4  3  1  0  0  0  0
  5  4  2  0  0  0  0
  6 11  1  0  0  0  0
  6  5  1  0  0  0  0
  7  6  2  0  0  0  0
  8  9  2  0  0  0  0
  8  7  1  0  0  0  0
  9 10  1  0  0  0  0
 10 22  1  0  0  0  0
 10 11  2  0  0  0  0
 11 12  1  0  0  0  0
 12 23  1  0  0  0  0
 12 13  2  0  0  0  0
 13 14  1  0  0  0  0
 14 24  1  0  0  0  0
 14  1  2  0  0  0  0
 17  3  1  0  0  0  0
 18  5  1  0  0  0  0
 19  7  1  0  0  0  0
 20  8  1  0  0  0  0
 21  9  1  0  0  0  0
M  END
>  <Charge>
0.0

>  <InChI>
1/C14H10/c1-2-6-12-10-14-8-4-3-7-13(14)9-11(12)5-1/h1-10H

>  <Molecular Formula>
C_{14}H_{10}

>  <Name>
ANTHRACENE

>  <SMILES>
c1ccc2cc3ccccc3cc2c1

>  <logK (BENZONITRILE)>
8.37

>  <logK (CARBON TETRACHLORIDE)>
8.17

>  <dipole moment>
0.000119266113462

>  <mean polarizability>
27.29

$$$$
563
 OpenBabel08101817183D

  5  4  0  0  0  0  0  0  0  0999 V2000
    0.0000    0.0000   -0.0000 Ge  0  0  0  0  0  0  0  0  0  0  0  0
   -1.2967   -1.3545   -1.3478 Br  0  0  0  0  0  0  0  0  0  0  0  0
    0.0081    2.1481   -0.8477 Br  0  0  0  0  0  0  0  0  0  0  0  0
   -0.8721    0.0195    2.1382 Br  0  0  0  0  0  0  0  0  0  0  0  0
    2.1607   -0.8131    0.0573 Br  0  0  0  0  0  0  0  0  0  0  0  0
  1  5  1  0  0  0  0
  1  4  1  0  0  0  0
  2  1  1  0  0  0  0
  3  1  1  0  0  0  0
M  END
>  <Charge>
0.0

>  <InChI>
1/Br4Ge/c1-5(2,3)4

>  <Molecular Formula>
Br_{4}Ge

>  <Name>
TETRABROMOGERMANE

>  <SMILES>
[Ge](Br)(Br)(Br)Br

>  <logK (CARBON TETRACHLORIDE)>
5.21

>  <mean polarizability>
16.44

>  <dipole moment>
0.000259131537338

$$$$
564
 OpenBabel08101817183D

  5  4  0  0  0  0  0  0  0  0999 V2000
   -0.2364    1.8967   -0.9645 Cl  0  0  0  0  0  0  0  0  0  0  0  0
    0.0000    0.0000    0.0000 Ge  0  0  0  0  0  0  0  0  0  0  0  0
   -1.6859   -1.2421   -0.4452 Cl  0  0  0  0  0  0  0  0  0  0  0  0
    1.7874   -0.9425   -0.7074 Cl  0  0  0  0  0  0  0  0  0  0  0  0
    0.1350    0.2879    2.1172 Cl  0  0  0  0  0  0  0  0  0  0  0  0
  1  2  1  0  0  0  0
  2  5  1  0  0  0  0
  3  2  1  0  0  0  0
  4  2  1  0  0  0  0
M  END
>  <Charge>
0.0

>  <InChI>
1/Cl4Ge/c1-5(2,3)4

>  <Molecular Formula>
Cl_{4}Ge

>  <Name>
TETRACHLOROGERMANE

>  <SMILES>
Cl[Ge](Cl)(Cl)Cl

>  <logK (CARBON TETRACHLORIDE)>
3.13

>  <mean polarizability>
12.95

>  <dipole moment>
0.00040644018374

$$$$
565
 OpenBabel08101817183D

 16 15  0  0  0  0  0  0  0  0999 V2000
   -2.8259   -0.0189    0.6987 C   0  0  0  0  0  0  0  0  0  0  0  0
   -1.9497   -0.1313   -0.3025 C   0  0  0  0  0  0  0  0  0  0  0  0
   -0.5419   -0.6264   -0.1674 C   0  0  0  0  0  0  0  0  0  0  0  0
    0.5040    0.4217   -0.6089 C   0  0  0  0  0  0  0  0  0  0  0  0
    1.9053   -0.1069   -0.5651 C   0  0  0  0  0  0  0  0  0  0  0  0
    2.8957    0.3967    0.1755 C   0  0  0  0  0  0  0  0  0  0  0  0
   -2.5623   -0.3014    1.7200 H   0  0  0  0  0  0  0  0  0  0  0  0
   -3.8367    0.3542    0.5356 H   0  0  0  0  0  0  0  0  0  0  0  0
   -2.2563    0.1673   -1.3115 H   0  0  0  0  0  0  0  0  0  0  0  0
   -0.4101   -1.5307   -0.7864 H   0  0  0  0  0  0  0  0  0  0  0  0
   -0.3453   -0.9249    0.8729 H   0  0  0  0  0  0  0  0  0  0  0  0
    0.4181    1.3163    0.0255 H   0  0  0  0  0  0  0  0  0  0  0  0
    0.2639    0.7393   -1.6388 H   0  0  0  0  0  0  0  0  0  0  0  0
    2.1051   -0.9839   -1.1909 H   0  0  0  0  0  0  0  0  0  0  0  0
    2.7413    1.2676    0.8156 H   0  0  0  0  0  0  0  0  0  0  0  0
    3.8947   -0.0387    0.1670 H   0  0  0  0  0  0  0  0  0  0  0  0
  1  7  1  0  0  0  0
  2  3  1  0  0  0  0
  2  1  2  0  0  0  0
  3 11  1  0  0  0  0
  4  5  1  0  0  0  0
  4  3  1  0  0  0  0
  4 12  1  0  0  0  0
  5  6  2  0  0  0  0
  6 15  1  0  0  0  0
  8  1  1  0  0  0  0
  9  2  1  0  0  0  0
 10  3  1  0  0  0  0
 13  4  1  0  0  0  0
 14  5  1  0  0  0  0
 16  6  1  0  0  0  0
M  END
>  <Charge>
0.0

>  <InChI>
1/C6H10/c1-3-5-6-4-2/h3-4H,1-2,5-6H2

>  <Molecular Formula>
C_{6}H_{10}

>  <Name>
1,5-HEXADIENE

>  <SMILES>
C=CCCC=C

>  <logK (1-HEXADECENE)>
2.456

>  <logK (CARBON TETRACHLORIDE)>
2.9

>  <logK (N-METHYLPYRROLIDONE)>
2.37

>  <mean polarizability>
11.75

>  <dipole moment>
0.281785186143

$$$$
566
 OpenBabel08101817183D

 16 15  0  0  0  0  0  0  0  0999 V2000
   -1.1757   -1.3425    0.3680 C   0  0  0  0  0  0  0  0  0  0  0  0
   -0.7194    0.0927    0.2889 C   0  0  0  0  0  0  0  0  0  0  0  0
   -1.5633    1.1092    0.5326 C   0  0  0  0  0  0  0  0  0  0  0  0
    0.6968    0.3404   -0.0903 C   0  0  0  0  0  0  0  0  0  0  0  0
    1.4402    1.2559    0.5532 C   0  0  0  0  0  0  0  0  0  0  0  0
    1.2711   -0.4908   -1.2098 C   0  0  0  0  0  0  0  0  0  0  0  0
   -0.5402   -1.9247    1.0524 H   0  0  0  0  0  0  0  0  0  0  0  0
   -2.2124   -1.4063    0.7183 H   0  0  0  0  0  0  0  0  0  0  0  0
   -1.1192   -1.8368   -0.6131 H   0  0  0  0  0  0  0  0  0  0  0  0
   -2.5963    0.9255    0.8307 H   0  0  0  0  0  0  0  0  0  0  0  0
   -1.2480    2.1467    0.4267 H   0  0  0  0  0  0  0  0  0  0  0  0
    1.0410    1.8210    1.3950 H   0  0  0  0  0  0  0  0  0  0  0  0
    2.4727    1.4512    0.2609 H   0  0  0  0  0  0  0  0  0  0  0  0
    0.6586   -0.4091   -2.1205 H   0  0  0  0  0  0  0  0  0  0  0  0
    2.2930   -0.1748   -1.4490 H   0  0  0  0  0  0  0  0  0  0  0  0
    1.3009   -1.5579   -0.9439 H   0  0  0  0  0  0  0  0  0  0  0  0
  1  8  1  0  0  0  0
  1  7  1  0  0  0  0
  2  1  1  0  0  0  0
  2  3  2  0  0  0  0
  3 10  1  0  0  0  0
  4  2  1  0  0  0  0
  4  5  2  0  0  0  0
  5 12  1  0  0  0  0
  6 16  1  0  0  0  0
  6  4  1  0  0  0  0
  9  1  1  0  0  0  0
 11  3  1  0  0  0  0
 13  5  1  0  0  0  0
 14  6  1  0  0  0  0
 15  6  1  0  0  0  0
M  END
>  <Charge>
0.0

>  <InChI>
1/C6H10/c1-5(2)6(3)4/h1,3H2,2,4H3

>  <Molecular Formula>
C_{6}H_{10}

>  <Name>
DIMETHYLBUTADIENE

>  <SMILES>
CC(=C)C(=C)C

>  <logK (CARBON TETRACHLORIDE)>
3.23

>  <logK (DIMETHYLFORMAMIDE)>
2.59

>  <mean polarizability>
11.56

>  <dipole moment>
0.755713648132

$$$$
567
 OpenBabel08101817183D

 14 14  0  0  0  0  0  0  0  0999 V2000
   -1.2723   -0.7640   -0.9085 C   0  0  0  0  0  0  0  0  0  0  0  0
   -1.7925    0.4748   -0.5245 C   0  0  0  0  0  0  0  0  0  0  0  0
   -0.9993    1.3391    0.2308 C   0  0  0  0  0  0  0  0  0  0  0  0
    0.2906    0.9648    0.5922 C   0  0  0  0  0  0  0  0  0  0  0  0
    0.8395   -0.2809    0.2167 C   0  0  0  0  0  0  0  0  0  0  0  0
    0.0175   -1.1359   -0.5460 C   0  0  0  0  0  0  0  0  0  0  0  0
    2.1111   -0.6390    0.5777 N   0  0  0  0  0  0  0  0  0  0  0  0
    1.2744    2.0586    1.5401 Cl  0  0  0  0  0  0  0  0  0  0  0  0
   -1.8776   -1.4519   -1.4988 H   0  0  0  0  0  0  0  0  0  0  0  0
   -2.8019    0.7691   -0.8068 H   0  0  0  0  0  0  0  0  0  0  0  0
   -1.3738    2.3117    0.5468 H   0  0  0  0  0  0  0  0  0  0  0  0
    0.4145   -2.1057   -0.8509 H   0  0  0  0  0  0  0  0  0  0  0  0
    2.6784   -0.0088    1.1259 H   0  0  0  0  0  0  0  0  0  0  0  0
    2.4913   -1.5319    0.3054 H   0  0  0  0  0  0  0  0  0  0  0  0
  1  6  2  0  0  0  0
  1  2  1  0  0  0  0
  2  3  2  0  0  0  0
  3 11  1  0  0  0  0
  3  4  1  0  0  0  0
  4  8  1  0  0  0  0
  5  7  1  0  0  0  0
  5  4  2  0  0  0  0
  6  5  1  0  0  0  0
  7 13  1  0  0  0  0
  9  1  1  0  0  0  0
 10  2  1  0  0  0  0
 12  6  1  0  0  0  0
 14  7  1  0  0  0  0
M  END
>  <Charge>
0.0

>  <InChI>
1/C6H6ClN/c7-5-3-1-2-4-6(5)8/h1-4H,8H2

>  <Molecular Formula>
C_{6}H_{6}ClN

>  <Name>
2-CHLOROANILINE

>  <SMILES>
c1ccc(c(c1)N)Cl

>  <logK (CARBON TETRACHLORIDE)>
5.33

>  <mean polarizability>
14.23

>  <dipole moment>
1.87311770415

$$$$
568
 OpenBabel08101817183D

 14 14  0  0  0  0  0  0  0  0999 V2000
   -1.0039   -1.3334    0.3375 C   0  0  0  0  0  0  0  0  0  0  0  0
    0.3482   -1.0908    0.5559 C   0  0  0  0  0  0  0  0  0  0  0  0
    0.9219    0.1344    0.1623 C   0  0  0  0  0  0  0  0  0  0  0  0
    0.1007    1.0993   -0.4524 C   0  0  0  0  0  0  0  0  0  0  0  0
   -1.2477    0.8254   -0.6565 C   0  0  0  0  0  0  0  0  0  0  0  0
   -1.8275   -0.3833   -0.2714 C   0  0  0  0  0  0  0  0  0  0  0  0
   -2.2401    2.0422   -1.4213 Cl  0  0  0  0  0  0  0  0  0  0  0  0
    2.2574    0.3886    0.3719 N   0  0  0  0  0  0  0  0  0  0  0  0
   -1.4319   -2.2868    0.6483 H   0  0  0  0  0  0  0  0  0  0  0  0
    0.9706   -1.8488    1.0334 H   0  0  0  0  0  0  0  0  0  0  0  0
    0.5140    2.0568   -0.7679 H   0  0  0  0  0  0  0  0  0  0  0  0
   -2.8845   -0.5705   -0.4430 H   0  0  0  0  0  0  0  0  0  0  0  0
    2.8513   -0.2974    0.8115 H   0  0  0  0  0  0  0  0  0  0  0  0
    2.6714    1.2643    0.0916 H   0  0  0  0  0  0  0  0  0  0  0  0
  1  2  1  0  0  0  0
  1  9  1  0  0  0  0
  2 10  1  0  0  0  0
  3  8  1  0  0  0  0
  3  2  2  0  0  0  0
  4  3  1  0  0  0  0
  5  4  2  0  0  0  0
  5  6  1  0  0  0  0
  6  1  2  0  0  0  0
  7  5  1  0  0  0  0
  8 13  1  0  0  0  0
 11  4  1  0  0  0  0
 12  6  1  0  0  0  0
 14  8  1  0  0  0  0
M  END
>  <Charge>
0.0

>  <InChI>
1/C6H6ClN/c7-5-2-1-3-6(8)4-5/h1-4H,8H2

>  <Molecular Formula>
C_{6}H_{6}ClN

>  <Name>
3-CHLOROANILINE

>  <SMILES>
c1cc(cc(c1)Cl)N

>  <logK (CARBON TETRACHLORIDE)>
5.64

>  <mean polarizability>
14.43

>  <dipole moment>
3.30881621579

$$$$
569
 OpenBabel08101817183D

 18 18  0  0  0  0  0  0  0  0999 V2000
    2.5140   -0.7305    0.8023 C   0  0  0  0  0  0  0  0  0  0  0  0
    1.6255    0.3394    0.5072 O   0  0  0  0  0  0  0  0  0  0  0  0
    0.3485    0.0075    0.1096 C   0  0  0  0  0  0  0  0  0  0  0  0
   -0.1375   -1.2899   -0.0250 C   0  0  0  0  0  0  0  0  0  0  0  0
   -1.4592   -1.5105   -0.4382 C   0  0  0  0  0  0  0  0  0  0  0  0
   -2.2837   -0.4234   -0.7133 C   0  0  0  0  0  0  0  0  0  0  0  0
   -1.7993    0.8799   -0.5793 C   0  0  0  0  0  0  0  0  0  0  0  0
   -0.4824    1.1237   -0.1679 C   0  0  0  0  0  0  0  0  0  0  0  0
    0.0302    2.3918   -0.0244 N   0  0  0  0  0  0  0  0  0  0  0  0
    2.1377   -1.3477    1.6338 H   0  0  0  0  0  0  0  0  0  0  0  0
    3.4618   -0.2665    1.0942 H   0  0  0  0  0  0  0  0  0  0  0  0
    2.6771   -1.3720   -0.0785 H   0  0  0  0  0  0  0  0  0  0  0  0
    0.5073   -2.1399    0.1902 H   0  0  0  0  0  0  0  0  0  0  0  0
   -1.8288   -2.5298   -0.5399 H   0  0  0  0  0  0  0  0  0  0  0  0
   -3.3128   -0.5813   -1.0352 H   0  0  0  0  0  0  0  0  0  0  0  0
   -2.4479    1.7308   -0.7956 H   0  0  0  0  0  0  0  0  0  0  0  0
   -0.5359    3.2032   -0.2144 H   0  0  0  0  0  0  0  0  0  0  0  0
    0.9852    2.5151    0.2745 H   0  0  0  0  0  0  0  0  0  0  0  0
  1 11  1  0  0  0  0
  1 10  1  0  0  0  0
  2  1  1  0  0  0  0
  3  2  1  0  0  0  0
  4  3  1  0  0  0  0
  4 13  1  0  0  0  0
  5  4  2  0  0  0  0
  6  7  2  0  0  0  0
  6  5  1  0  0  0  0
  7  8  1  0  0  0  0
  8  9  1  0  0  0  0
  8  3  2  0  0  0  0
  9 18  1  0  0  0  0
 12  1  1  0  0  0  0
 14  5  1  0  0  0  0
 15  6  1  0  0  0  0
 16  7  1  0  0  0  0
 17  9  1  0  0  0  0
M  END
>  <Charge>
0.0

>  <InChI>
1/C7H9NO/c1-9-7-5-3-2-4-6(7)8/h2-5H,8H2,1H3

>  <Molecular Formula>
C_{7}H_{9}NO

>  <Name>
2-ANISIDINE

>  <SMILES>
COc1ccccc1N

>  <logK (CARBON TETRACHLORIDE)>
5.71

>  <dipole moment>
1.72804293422

>  <mean polarizability>
15.01

$$$$
570
 OpenBabel08101817183D

 16 16  0  0  1  0  0  0  0  0999 V2000
    2.3282    0.1259    0.0841 C   0  0  0  0  0  0  0  0  0  0  0  0
    1.7191   -1.1300    0.0022 C   0  0  0  0  0  0  0  0  0  0  0  0
    0.3333   -1.2345   -0.0713 C   0  0  0  0  0  0  0  0  0  0  0  0
   -0.4677   -0.0821   -0.0575 C   0  0  0  0  0  0  0  0  0  0  0  0
    0.1517    1.1747    0.0171 C   0  0  0  0  0  0  0  0  0  0  0  0
    1.5419    1.2779    0.0865 C   0  0  0  0  0  0  0  0  0  0  0  0
   -1.9466   -0.2321   -0.1285 C   0  0  2  0  0  0  0  0  0  0  0  0
   -2.4842   -1.2886   -0.5967 N   0  0  0  0  0  0  0  0  0  0  0  0
   -2.7006    0.8228    0.3272 O   0  0  0  0  0  0  0  0  0  0  0  0
    3.4137    0.2074    0.1403 H   0  0  0  0  0  0  0  0  0  0  0  0
    2.3301   -2.0327   -0.0026 H   0  0  0  0  0  0  0  0  0  0  0  0
   -0.1599   -2.2028   -0.1413 H   0  0  0  0  0  0  0  0  0  0  0  0
   -0.4392    2.0928   -0.0221 H   0  0  0  0  0  0  0  0  0  0  0  0
    2.0096    2.2612    0.1331 H   0  0  0  0  0  0  0  0  0  0  0  0
   -3.5073   -1.2230   -0.5455 H   0  0  0  0  0  0  0  0  0  0  0  0
   -2.1218    1.4635    0.7751 H   0  0  0  0  0  0  0  0  0  0  0  0
  1  6  1  0  0  0  0
  1 10  1  0  0  0  0
  2  1  2  0  0  0  0
  3  4  2  0  0  0  0
  3  2  1  0  0  0  0
  4  5  1  0  0  0  0
  5  6  2  0  0  0  0
  6 14  1  0  0  0  0
  7  8  1  6  0  0  0
  7  4  1  0  0  0  0
  7  9  1  0  0  0  0
  8 15  1  0  0  0  0
  9 16  1  0  0  0  0
 11  2  1  0  0  0  0
 12  3  1  0  0  0  0
 13  5  1  0  0  0  0
M  RAD  2   7   2   8   2
M  END
>  <Charge>
0.0

>  <InChI>
1/C7H7NO/c8-7(9)6-4-2-1-3-5-6/h1-5H,(H2,8,9)

>  <Molecular Formula>
C_{7}H_{7}NO

>  <Name>
BENZAMIDE

>  <SMILES>
c1ccc(cc1)C(=N)O

>  <logK (CARBON TETRACHLORIDE)>
6.77

>  <mean polarizability>
14.34

>  <dipole moment>
2.88895216999

$$$$
571
 OpenBabel08101817183D

 19 19  0  0  0  0  0  0  0  0999 V2000
   -3.3081   -0.4641    0.8216 C   0  0  0  0  0  0  0  0  0  0  0  0
   -1.8850   -0.6012    0.6187 O   0  0  0  0  0  0  0  0  0  0  0  0
   -1.2515    0.5204    0.1102 C   0  0  0  0  0  0  0  0  0  0  0  0
   -1.8697    1.5348   -0.1391 O   0  0  0  0  0  0  0  0  0  0  0  0
    0.2015    0.3187   -0.0761 C   0  0  0  0  0  0  0  0  0  0  0  0
    0.9232    1.4131   -0.5932 C   0  0  0  0  0  0  0  0  0  0  0  0
    2.2892    1.3419   -0.8118 C   0  0  0  0  0  0  0  0  0  0  0  0
    2.9680    0.1523   -0.5106 C   0  0  0  0  0  0  0  0  0  0  0  0
    2.2852   -0.9422   -0.0003 C   0  0  0  0  0  0  0  0  0  0  0  0
    0.9004   -0.8798    0.2245 C   0  0  0  0  0  0  0  0  0  0  0  0
    0.3172   -1.9940    0.7236 O   0  0  0  0  0  0  0  0  0  0  0  0
   -3.8082   -0.2502   -0.1301 H   0  0  0  0  0  0  0  0  0  0  0  0
   -3.5145    0.3492    1.5268 H   0  0  0  0  0  0  0  0  0  0  0  0
   -3.6402   -1.4237    1.2272 H   0  0  0  0  0  0  0  0  0  0  0  0
    0.3623    2.3203   -0.8151 H   0  0  0  0  0  0  0  0  0  0  0  0
    2.8285    2.1993   -1.2113 H   0  0  0  0  0  0  0  0  0  0  0  0
    4.0432    0.0794   -0.6767 H   0  0  0  0  0  0  0  0  0  0  0  0
    2.8000   -1.8722    0.2379 H   0  0  0  0  0  0  0  0  0  0  0  0
   -0.6417   -1.8022    0.8265 H   0  0  0  0  0  0  0  0  0  0  0  0
  1 14  1  0  0  0  0
  1 13  1  0  0  0  0
  2  1  1  0  0  0  0
  3  2  1  0  0  0  0
  4  3  2  0  0  0  0
  5  3  1  0  0  0  0
  5 10  2  0  0  0  0
  6  5  1  0  0  0  0
  7  6  2  0  0  0  0
  7  8  1  0  0  0  0
  8  9  2  0  0  0  0
  9 10  1  0  0  0  0
  9 18  1  0  0  0  0
 10 11  1  0  0  0  0
 11 19  1  0  0  0  0
 12  1  1  0  0  0  0
 15  6  1  0  0  0  0
 16  7  1  0  0  0  0
 17  8  1  0  0  0  0
M  END
>  <Charge>
0.0

>  <InChI>
1/C8H8O3/c1-11-8(10)6-4-2-3-5-7(6)9/h2-5,9H,1H3

>  <Molecular Formula>
C_{8}H_{8}O_{3}

>  <Name>
METHYL SALICYLATE

>  <SMILES>
COC(=O)c1ccccc1O

>  <logK (CARBON TETRACHLORIDE)>
5.41

>  <mean polarizability>
16.63

>  <dipole moment>
1.16242352041

$$$$
572
 OpenBabel08101817183D

 22 22  0  0  0  0  0  0  0  0999 V2000
    3.5240   -0.4056   -0.7571 C   0  0  0  0  0  0  0  0  0  0  0  0
    2.7995   -0.5381    0.5690 C   0  0  0  0  0  0  0  0  0  0  0  0
    1.3687   -0.7210    0.3739 O   0  0  0  0  0  0  0  0  0  0  0  0
    0.6241    0.3985    0.2720 C   0  0  0  0  0  0  0  0  0  0  0  0
    1.1154    1.5326    0.3614 O   0  0  0  0  0  0  0  0  0  0  0  0
   -0.8056    0.1516    0.0527 C   0  0  0  0  0  0  0  0  0  0  0  0
   -1.3404   -1.1476   -0.0468 C   0  0  0  0  0  0  0  0  0  0  0  0
   -2.6958   -1.3464   -0.2584 C   0  0  0  0  0  0  0  0  0  0  0  0
   -3.5446   -0.2342   -0.3755 C   0  0  0  0  0  0  0  0  0  0  0  0
   -3.0465    1.0572   -0.2821 C   0  0  0  0  0  0  0  0  0  0  0  0
   -1.6745    1.2720   -0.0667 C   0  0  0  0  0  0  0  0  0  0  0  0
   -1.2312    2.5369    0.0184 O   0  0  0  0  0  0  0  0  0  0  0  0
    3.2119    0.5023   -1.2872 H   0  0  0  0  0  0  0  0  0  0  0  0
    4.6061   -0.3420   -0.5783 H   0  0  0  0  0  0  0  0  0  0  0  0
    3.3335   -1.2761   -1.3979 H   0  0  0  0  0  0  0  0  0  0  0  0
    2.9593    0.3410    1.2048 H   0  0  0  0  0  0  0  0  0  0  0  0
    3.1091   -1.4406    1.1094 H   0  0  0  0  0  0  0  0  0  0  0  0
   -0.6648   -1.9959    0.0464 H   0  0  0  0  0  0  0  0  0  0  0  0
   -3.0969   -2.3560   -0.3328 H   0  0  0  0  0  0  0  0  0  0  0  0
   -4.6121   -0.3824   -0.5424 H   0  0  0  0  0  0  0  0  0  0  0  0
   -3.6964    1.9266   -0.3723 H   0  0  0  0  0  0  0  0  0  0  0  0
   -0.2431    2.4675    0.1709 H   0  0  0  0  0  0  0  0  0  0  0  0
  1 14  1  0  0  0  0
  1  2  1  0  0  0  0
  2 17  1  0  0  0  0
  2 16  1  0  0  0  0
  3  2  1  0  0  0  0
  4  5  2  0  0  0  0
  4  3  1  0  0  0  0
  6  4  1  0  0  0  0
  7 18  1  0  0  0  0
  7  6  1  0  0  0  0
  8  7  2  0  0  0  0
  9 10  2  0  0  0  0
  9  8  1  0  0  0  0
 10 11  1  0  0  0  0
 11 12  1  0  0  0  0
 11  6  2  0  0  0  0
 12 22  1  0  0  0  0
 13  1  1  0  0  0  0
 15  1  1  0  0  0  0
 19  8  1  0  0  0  0
 20  9  1  0  0  0  0
 21 10  1  0  0  0  0
M  END
>  <Charge>
0.0

>  <InChI>
1/C9H10O3/c1-2-12-9(11)7-5-3-4-6-8(7)10/h3-6,10H,2H2,1H3

>  <Molecular Formula>
C_{9}H_{10}O_{3}

>  <Name>
ETHYL SALICYLATE

>  <SMILES>
CCOC(=O)c1ccccc1O

>  <logK (CARBON TETRACHLORIDE)>
6.06

>  <mean polarizability>
18.68

>  <dipole moment>
2.63377903386

$$$$
573
 OpenBabel08101817183D

 25 25  0  0  0  0  0  0  0  0999 V2000
    4.3921   -0.6866    0.2949 C   0  0  0  0  0  0  0  0  0  0  0  0
    2.8712   -0.7254    0.4499 C   0  0  0  0  0  0  0  0  0  0  0  0
    2.2397    0.6110    0.0848 C   0  0  0  0  0  0  0  0  0  0  0  0
    0.8058    0.6052    0.3034 O   0  0  0  0  0  0  0  0  0  0  0  0
    0.0522    0.1586   -0.7290 C   0  0  0  0  0  0  0  0  0  0  0  0
    0.5192   -0.2065   -1.7957 O   0  0  0  0  0  0  0  0  0  0  0  0
   -1.4157    0.1706   -0.4456 C   0  0  0  0  0  0  0  0  0  0  0  0
   -2.2434   -0.1655   -1.5324 C   0  0  0  0  0  0  0  0  0  0  0  0
   -3.6273   -0.1977   -1.4296 C   0  0  0  0  0  0  0  0  0  0  0  0
   -4.2248    0.1067   -0.2032 C   0  0  0  0  0  0  0  0  0  0  0  0
   -3.4339    0.4367    0.8908 C   0  0  0  0  0  0  0  0  0  0  0  0
   -2.0339    0.4758    0.7897 C   0  0  0  0  0  0  0  0  0  0  0  0
   -1.2827    0.7978    1.8813 O   0  0  0  0  0  0  0  0  0  0  0  0
    4.8404   -1.6484    0.5751 H   0  0  0  0  0  0  0  0  0  0  0  0
    4.8425    0.0881    0.9325 H   0  0  0  0  0  0  0  0  0  0  0  0
    4.6825   -0.4749   -0.7439 H   0  0  0  0  0  0  0  0  0  0  0  0
    2.5992   -0.9758    1.4862 H   0  0  0  0  0  0  0  0  0  0  0  0
    2.4457   -1.5065   -0.1960 H   0  0  0  0  0  0  0  0  0  0  0  0
    2.6093    1.4129    0.7374 H   0  0  0  0  0  0  0  0  0  0  0  0
    2.4425    0.8680   -0.9634 H   0  0  0  0  0  0  0  0  0  0  0  0
   -1.7442   -0.4018   -2.4712 H   0  0  0  0  0  0  0  0  0  0  0  0
   -4.2366   -0.4583   -2.2938 H   0  0  0  0  0  0  0  0  0  0  0  0
   -5.3094    0.0856   -0.0952 H   0  0  0  0  0  0  0  0  0  0  0  0
   -3.8984    0.6675    1.8531 H   0  0  0  0  0  0  0  0  0  0  0  0
   -1.8919    0.9629    2.6200 H   0  0  0  0  0  0  0  0  0  0  0  0
  1  2  1  0  0  0  0
  1 14  1  0  0  0  0
  1 15  1  0  0  0  0
  2 17  1  0  0  0  0
  3  4  1  0  0  0  0
  3  2  1  0  0  0  0
  3 19  1  0  0  0  0
  5  7  1  0  0  0  0
  5  4  1  0  0  0  0
  6  5  2  0  0  0  0
  7 12  2  0  0  0  0
  8  9  2  0  0  0  0
  8  7  1  0  0  0  0
  9 10  1  0  0  0  0
 10 23  1  0  0  0  0
 10 11  2  0  0  0  0
 11 24  1  0  0  0  0
 12 11  1  0  0  0  0
 12 13  1  0  0  0  0
 13 25  1  0  0  0  0
 16  1  1  0  0  0  0
 18  2  1  0  0  0  0
 20  3  1  0  0  0  0
 21  8  1  0  0  0  0
 22  9  1  0  0  0  0
M  END
>  <Charge>
0.0

>  <InChI>
1/C10H12O3/c1-2-7-13-10(12)8-5-3-4-6-9(8)11/h3-6,11H,2,7H2,1H3

>  <Molecular Formula>
C_{10}H_{12}O_{3}

>  <Name>
PROPYL SALICYLATE

>  <SMILES>
CCCOC(=O)c1ccccc1O

>  <logK (CARBON TETRACHLORIDE)>
6.57

>  <dipole moment>
3.01044311597

>  <mean polarizability>
20.61

$$$$
574
 OpenBabel08101817183D

 28 28  0  0  0  0  0  0  0  0999 V2000
   -4.7351    0.8647    0.0142 C   0  0  0  0  0  0  0  0  0  0  0  0
   -3.8056   -0.3273    0.2408 C   0  0  0  0  0  0  0  0  0  0  0  0
   -2.3424   -0.0050   -0.0769 C   0  0  0  0  0  0  0  0  0  0  0  0
   -1.4378   -1.2071    0.1476 C   0  0  0  0  0  0  0  0  0  0  0  0
   -0.0647   -0.9281   -0.2426 O   0  0  0  0  0  0  0  0  0  0  0  0
    0.7339   -0.3817    0.6959 C   0  0  0  0  0  0  0  0  0  0  0  0
    0.3383   -0.1376    1.8447 O   0  0  0  0  0  0  0  0  0  0  0  0
    2.1017   -0.1116    0.2376 C   0  0  0  0  0  0  0  0  0  0  0  0
    2.5281   -0.3953   -1.0743 C   0  0  0  0  0  0  0  0  0  0  0  0
    3.8277   -0.1273   -1.4752 C   0  0  0  0  0  0  0  0  0  0  0  0
    4.7294    0.4353   -0.5575 C   0  0  0  0  0  0  0  0  0  0  0  0
    4.3381    0.7257    0.7412 C   0  0  0  0  0  0  0  0  0  0  0  0
    3.0234    0.4587    1.1598 C   0  0  0  0  0  0  0  0  0  0  0  0
    2.6833    0.7535    2.4253 O   0  0  0  0  0  0  0  0  0  0  0  0
   -5.7772    0.6106    0.2490 H   0  0  0  0  0  0  0  0  0  0  0  0
   -4.4483    1.7167    0.6467 H   0  0  0  0  0  0  0  0  0  0  0  0
   -4.7011    1.2021   -1.0314 H   0  0  0  0  0  0  0  0  0  0  0  0
   -3.8854   -0.6634    1.2871 H   0  0  0  0  0  0  0  0  0  0  0  0
   -4.1368   -1.1764   -0.3793 H   0  0  0  0  0  0  0  0  0  0  0  0
   -1.9988    0.8269    0.5560 H   0  0  0  0  0  0  0  0  0  0  0  0
   -2.2504    0.3244   -1.1238 H   0  0  0  0  0  0  0  0  0  0  0  0
   -1.7306   -2.0497   -0.4920 H   0  0  0  0  0  0  0  0  0  0  0  0
   -1.4517   -1.5243    1.1982 H   0  0  0  0  0  0  0  0  0  0  0  0
    1.8132   -0.8306   -1.7701 H   0  0  0  0  0  0  0  0  0  0  0  0
    4.1454   -0.3510   -2.4924 H   0  0  0  0  0  0  0  0  0  0  0  0
    5.7534    0.6473   -0.8669 H   0  0  0  0  0  0  0  0  0  0  0  0
    5.0292    1.1620    1.4613 H   0  0  0  0  0  0  0  0  0  0  0  0
    1.7206    0.4888    2.5148 H   0  0  0  0  0  0  0  0  0  0  0  0
  1  2  1  0  0  0  0
  1 15  1  0  0  0  0
  1 16  1  0  0  0  0
  2 18  1  0  0  0  0
  3  4  1  0  0  0  0
  3  2  1  0  0  0  0
  3 20  1  0  0  0  0
  4 23  1  0  0  0  0
  5  4  1  0  0  0  0
  5  6  1  0  0  0  0
  6  7  2  0  0  0  0
  8  6  1  0  0  0  0
  8 13  2  0  0  0  0
  9  8  1  0  0  0  0
 10  9  2  0  0  0  0
 10 11  1  0  0  0  0
 11 12  2  0  0  0  0
 12 13  1  0  0  0  0
 12 27  1  0  0  0  0
 13 14  1  0  0  0  0
 14 28  1  0  0  0  0
 17  1  1  0  0  0  0
 19  2  1  0  0  0  0
 21  3  1  0  0  0  0
 22  4  1  0  0  0  0
 24  9  1  0  0  0  0
 25 10  1  0  0  0  0
 26 11  1  0  0  0  0
M  END
>  <Charge>
0.0

>  <InChI>
1/C11H14O3/c1-2-3-8-14-11(13)9-6-4-5-7-10(9)12/h4-7,12H,2-3,8H2,1H3

>  <Molecular Formula>
C_{11}H_{14}O_{3}

>  <Name>
N-BUTYL SALICYLATE

>  <SMILES>
CCCCOC(=O)c1ccccc1O

>  <logK (CARBON TETRACHLORIDE)>
7.13

>  <dipole moment>
2.69903786632

>  <mean polarizability>
22.73

$$$$
575
 OpenBabel08101817183D

  8  7  0  0  0  0  0  0  0  0999 V2000
    0.5254   -0.4093    0.2125 C   0  0  0  0  0  0  0  0  0  0  0  0
    0.7878   -1.1766    1.1016 O   0  0  0  0  0  0  0  0  0  0  0  0
   -0.8330    0.3478    0.0844 C   0  0  0  0  0  0  0  0  0  0  0  0
   -1.5951   -0.1145   -1.4681 Cl  0  0  0  0  0  0  0  0  0  0  0  0
   -1.8927   -0.0896    1.4269 Cl  0  0  0  0  0  0  0  0  0  0  0  0
   -0.5084    2.1079    0.1139 Cl  0  0  0  0  0  0  0  0  0  0  0  0
    1.3455   -0.0801   -0.8045 O   0  0  0  0  0  0  0  0  0  0  0  0
    2.1704   -0.5854   -0.6667 H   0  0  0  0  0  0  0  0  0  0  0  0
  1  2  2  0  0  0  0
  3  6  1  0  0  0  0
  3  1  1  0  0  0  0
  3  5  1  0  0  0  0
  4  3  1  0  0  0  0
  7  8  1  0  0  0  0
  7  1  1  0  0  0  0
M  END
>  <Charge>
0.0

>  <InChI>
1/C2HCl3O2/c3-2(4,5)1(6)7/h(H,6,7)

>  <Molecular Formula>
C_{2}HCl_{3}O_{2}

>  <Name>
TRICHLOROACETIC ACID

>  <SMILES>
C(=O)(C(Cl)(Cl)Cl)O

>  <logK (CARBON TETRACHLORIDE)>
4.79

>  <mean polarizability>
11.34

>  <dipole moment>
1.73531567144

$$$$
576
 OpenBabel08101817183D

  4  3  0  0  0  0  0  0  0  0999 V2000
    0.6055   -0.2830    0.4016 O   0  0  0  0  0  0  0  0  0  0  0  0
   -0.6184   -0.2537   -0.4016 O   0  0  0  0  0  0  0  0  0  0  0  0
    1.1963    0.2399   -0.1712 H   0  0  0  0  0  0  0  0  0  0  0  0
   -1.1834    0.2970    0.1712 H   0  0  0  0  0  0  0  0  0  0  0  0
  2  4  1  0  0  0  0
  2  1  1  0  0  0  0
  3  1  1  0  0  0  0
M  END
>  <Charge>
0.0

>  <InChI>
1/H2O2/c1-2/h1-2H

>  <Molecular Formula>
H_{2}O_{2}

>  <Name>
HYDROGEN PEROXIDE

>  <SMILES>
OO

>  <logK (CARBON TETRACHLORIDE)>
1.69

>  <mean polarizability>
2.19

>  <dipole moment>
1.74158042584

$$$$
577
 OpenBabel08101817183D

 15 15  0  0  0  0  0  0  0  0999 V2000
   -1.4228   -1.2106    0.4023 C   0  0  0  0  0  0  0  0  0  0  0  0
   -2.0349   -0.0434   -0.0566 C   0  0  0  0  0  0  0  0  0  0  0  0
   -1.2416    1.0397   -0.4337 C   0  0  0  0  0  0  0  0  0  0  0  0
    0.1480    0.9711   -0.3582 C   0  0  0  0  0  0  0  0  0  0  0  0
    0.7823   -0.2037    0.1041 C   0  0  0  0  0  0  0  0  0  0  0  0
   -0.0342   -1.2839    0.4794 C   0  0  0  0  0  0  0  0  0  0  0  0
    2.1623   -0.3095    0.1925 N   0  0  0  0  0  0  0  0  0  0  0  0
    0.8463    2.0959   -0.7542 O   0  0  0  0  0  0  0  0  0  0  0  0
   -2.0227   -2.0692    0.7027 H   0  0  0  0  0  0  0  0  0  0  0  0
   -3.1196    0.0284   -0.1223 H   0  0  0  0  0  0  0  0  0  0  0  0
   -1.6847    1.9669   -0.7967 H   0  0  0  0  0  0  0  0  0  0  0  0
    0.4445   -2.1973    0.8384 H   0  0  0  0  0  0  0  0  0  0  0  0
    2.5767   -1.1651    0.5283 H   0  0  0  0  0  0  0  0  0  0  0  0
    2.8014    0.4262   -0.0593 H   0  0  0  0  0  0  0  0  0  0  0  0
    1.7990    1.9547   -0.6668 H   0  0  0  0  0  0  0  0  0  0  0  0
  1  6  1  0  0  0  0
  1  9  1  0  0  0  0
  2  1  2  0  0  0  0
  3  4  2  0  0  0  0
  3  2  1  0  0  0  0
  4  5  1  0  0  0  0
  5  7  1  0  0  0  0
  5  6  2  0  0  0  0
  6 12  1  0  0  0  0
  7 13  1  0  0  0  0
  8 15  1  0  0  0  0
  8  4  1  0  0  0  0
 10  2  1  0  0  0  0
 11  3  1  0  0  0  0
 14  7  1  0  0  0  0
M  END
>  <Charge>
0.0

>  <InChI>
1/C6H7NO/c7-5-3-1-2-4-6(5)8/h1-4,8H,7H2

>  <Molecular Formula>
C_{6}H_{7}NO

>  <Name>
AMINOPHENOL

>  <SMILES>
c1ccc(c(c1)N)O

>  <logK (CARBON TETRACHLORIDE)>
5.73

>  <mean polarizability>
12.79

>  <dipole moment>
2.98045532004

$$$$
578
 OpenBabel08101817183D

 15 15  0  0  0  0  0  0  0  0999 V2000
   -0.4241    1.7380   -0.0457 C   0  0  0  0  0  0  0  0  0  0  0  0
    0.8281    1.1925    0.2270 C   0  0  0  0  0  0  0  0  0  0  0  0
    0.9993   -0.2051    0.2246 C   0  0  0  0  0  0  0  0  0  0  0  0
   -0.1109   -1.0226   -0.0562 C   0  0  0  0  0  0  0  0  0  0  0  0
   -1.3567   -0.4529   -0.3266 C   0  0  0  0  0  0  0  0  0  0  0  0
   -1.5293    0.9350   -0.3248 C   0  0  0  0  0  0  0  0  0  0  0  0
   -2.4582   -1.2256   -0.6040 O   0  0  0  0  0  0  0  0  0  0  0  0
    2.2299   -0.7644    0.4923 N   0  0  0  0  0  0  0  0  0  0  0  0
   -0.5419    2.8220   -0.0404 H   0  0  0  0  0  0  0  0  0  0  0  0
    1.6780    1.8408    0.4426 H   0  0  0  0  0  0  0  0  0  0  0  0
    0.0029   -2.1101   -0.0627 H   0  0  0  0  0  0  0  0  0  0  0  0
   -2.5094    1.3565   -0.5384 H   0  0  0  0  0  0  0  0  0  0  0  0
   -2.1973   -2.1595   -0.5719 H   0  0  0  0  0  0  0  0  0  0  0  0
    3.0272   -0.1813    0.6926 H   0  0  0  0  0  0  0  0  0  0  0  0
    2.3625   -1.7634    0.4917 H   0  0  0  0  0  0  0  0  0  0  0  0
  1  9  1  0  0  0  0
  1  2  2  0  0  0  0
  2 10  1  0  0  0  0
  3  2  1  0  0  0  0
  3  8  1  0  0  0  0
  4  3  2  0  0  0  0
  5  6  2  0  0  0  0
  5  4  1  0  0  0  0
  6  1  1  0  0  0  0
  7 13  1  0  0  0  0
  7  5  1  0  0  0  0
  8 14  1  0  0  0  0
 11  4  1  0  0  0  0
 12  6  1  0  0  0  0
 15  8  1  0  0  0  0
M  END
>  <Charge>
0.0

>  <InChI>
1/C6H7NO/c7-5-2-1-3-6(8)4-5/h1-4,8H,7H2

>  <Molecular Formula>
C_{6}H_{7}NO

>  <Name>
3-AMINOPHENOL

>  <SMILES>
c1cc(cc(c1)O)N

>  <logK (CARBON TETRACHLORIDE)>
6.27

>  <mean polarizability>
12.95

>  <dipole moment>
3.10302767733

$$$$
579
 OpenBabel08101817183D

 15 15  0  0  0  0  0  0  0  0999 V2000
    0.4605    1.2543   -0.0237 C   0  0  0  0  0  0  0  0  0  0  0  0
   -0.8776    1.2457    0.3591 C   0  0  0  0  0  0  0  0  0  0  0  0
   -1.5771    0.0401    0.4554 C   0  0  0  0  0  0  0  0  0  0  0  0
   -0.9142   -1.1537    0.1624 C   0  0  0  0  0  0  0  0  0  0  0  0
    0.4271   -1.1457   -0.2213 C   0  0  0  0  0  0  0  0  0  0  0  0
    1.1421    0.0596   -0.3223 C   0  0  0  0  0  0  0  0  0  0  0  0
    2.4722    0.0739   -0.7028 N   0  0  0  0  0  0  0  0  0  0  0  0
   -2.9019    0.0916    0.8396 O   0  0  0  0  0  0  0  0  0  0  0  0
    0.9896    2.2065   -0.0931 H   0  0  0  0  0  0  0  0  0  0  0  0
   -1.3934    2.1779    0.5875 H   0  0  0  0  0  0  0  0  0  0  0  0
   -1.4459   -2.1056    0.2326 H   0  0  0  0  0  0  0  0  0  0  0  0
    0.9249   -2.0906   -0.4456 H   0  0  0  0  0  0  0  0  0  0  0  0
    2.9818    0.9401   -0.7731 H   0  0  0  0  0  0  0  0  0  0  0  0
    2.9611   -0.7808   -0.9158 H   0  0  0  0  0  0  0  0  0  0  0  0
   -3.2494   -0.8134    0.8611 H   0  0  0  0  0  0  0  0  0  0  0  0
  1  2  2  0  0  0  0
  2  3  1  0  0  0  0
  2 10  1  0  0  0  0
  3  8  1  0  0  0  0
  4 11  1  0  0  0  0
  4  3  2  0  0  0  0
  5  4  1  0  0  0  0
  6  5  2  0  0  0  0
  6  1  1  0  0  0  0
  7  6  1  0  0  0  0
  8 15  1  0  0  0  0
  9  1  1  0  0  0  0
 12  5  1  0  0  0  0
 13  7  1  0  0  0  0
 14  7  1  0  0  0  0
M  END
>  <Charge>
0.0

>  <InChI>
1/C6H7NO/c7-5-1-3-6(8)4-2-5/h1-4,8H,7H2

>  <Molecular Formula>
C_{6}H_{7}NO

>  <Name>
4-AMINOPHENOL

>  <SMILES>
c1cc(ccc1N)O

>  <logK (CARBON TETRACHLORIDE)>
6.06

>  <mean polarizability>
12.93

>  <dipole moment>
2.25072145842

$$$$
580
 OpenBabel08101817183D

 22 21  0  0  0  0  0  0  0  0999 V2000
    3.4012    0.8574   -0.6875 C   0  0  0  0  0  0  0  0  0  0  0  0
    2.2987   -0.1797   -0.5948 C   0  0  0  0  0  0  0  0  0  0  0  0
    1.1326    0.4530   -0.0752 O   0  0  0  0  0  0  0  0  0  0  0  0
   -0.0097   -0.3799   -0.0408 C   0  0  0  0  0  0  0  0  0  0  0  0
   -0.0248   -1.2659    1.2013 C   0  0  0  0  0  0  0  0  0  0  0  0
   -1.0991    0.5217   -0.0535 O   0  0  0  0  0  0  0  0  0  0  0  0
   -2.3123   -0.0385   -0.5478 C   0  0  0  0  0  0  0  0  0  0  0  0
   -3.3509    1.0641   -0.6193 C   0  0  0  0  0  0  0  0  0  0  0  0
    4.3174    0.4015   -1.0850 H   0  0  0  0  0  0  0  0  0  0  0  0
    3.6242    1.2747    0.3027 H   0  0  0  0  0  0  0  0  0  0  0  0
    3.1044    1.6805   -1.3496 H   0  0  0  0  0  0  0  0  0  0  0  0
    2.6159   -1.0161    0.0565 H   0  0  0  0  0  0  0  0  0  0  0  0
    2.0768   -0.6065   -1.5926 H   0  0  0  0  0  0  0  0  0  0  0  0
   -0.0378   -1.0017   -0.9651 H   0  0  0  0  0  0  0  0  0  0  0  0
    0.8417   -1.9406    1.2133 H   0  0  0  0  0  0  0  0  0  0  0  0
    0.0029   -0.6308    2.0952 H   0  0  0  0  0  0  0  0  0  0  0  0
   -0.9300   -1.8872    1.2302 H   0  0  0  0  0  0  0  0  0  0  0  0
   -2.6665   -0.8536    0.1115 H   0  0  0  0  0  0  0  0  0  0  0  0
   -2.1379   -0.4787   -1.5492 H   0  0  0  0  0  0  0  0  0  0  0  0
   -4.3015    0.6647   -0.9964 H   0  0  0  0  0  0  0  0  0  0  0  0
   -3.0184    1.8668   -1.2893 H   0  0  0  0  0  0  0  0  0  0  0  0
   -3.5269    1.4951    0.3746 H   0  0  0  0  0  0  0  0  0  0  0  0
  1  2  1  0  0  0  0
  1 10  1  0  0  0  0
  2  3  1  0  0  0  0
  2 12  1  0  0  0  0
  3  4  1  0  0  0  0
  4  5  1  0  0  0  0
  5 15  1  0  0  0  0
  5 17  1  0  0  0  0
  5 16  1  0  0  0  0
  6  4  1  0  0  0  0
  7  6  1  0  0  0  0
  7 18  1  0  0  0  0
  8  7  1  0  0  0  0
  8 22  1  0  0  0  0
  9  1  1  0  0  0  0
 11  1  1  0  0  0  0
 13  2  1  0  0  0  0
 14  4  1  0  0  0  0
 19  7  1  0  0  0  0
 20  8  1  0  0  0  0
 21  8  1  0  0  0  0
M  END
>  <Charge>
0.0

>  <InChI>
1/C6H14O2/c1-4-7-6(3)8-5-2/h6H,4-5H2,1-3H3

>  <Molecular Formula>
C_{6}H_{14}O_{2}

>  <Name>
1,1-DIETHOXYETHANE

>  <SMILES>
CCOC(C)OCC

>  <logK (DICHLOROETHANE)>
3.86

>  <mean polarizability>
13.7

>  <dipole moment>
2.06369824786

$$$$
581
 OpenBabel08101817183D

 14 14  0  0  0  0  0  0  0  0999 V2000
   -1.2928   -1.0399   -0.5467 C   0  0  0  0  0  0  0  0  0  0  0  0
   -1.9069    0.1733   -0.2272 C   0  0  0  0  0  0  0  0  0  0  0  0
   -1.1501    1.2465    0.2369 C   0  0  0  0  0  0  0  0  0  0  0  0
    0.2311    1.1181    0.4149 C   0  0  0  0  0  0  0  0  0  0  0  0
    0.8381   -0.1059    0.0951 C   0  0  0  0  0  0  0  0  0  0  0  0
    0.0833   -1.1708   -0.3998 C   0  0  0  0  0  0  0  0  0  0  0  0
    2.2877   -0.3436    0.2656 N   0  0  0  0  0  0  0  0  0  0  0  0
    2.8452   -1.0076   -0.6109 O   0  0  0  0  0  0  0  0  0  0  0  0
    2.8257    0.1070    1.2744 O   0  0  0  0  0  0  0  0  0  0  0  0
    1.1190    2.4992    0.9510 Cl  0  0  0  0  0  0  0  0  0  0  0  0
   -1.8810   -1.8791   -0.9145 H   0  0  0  0  0  0  0  0  0  0  0  0
   -2.9834    0.2926   -0.3466 H   0  0  0  0  0  0  0  0  0  0  0  0
   -1.6174    2.2029    0.4644 H   0  0  0  0  0  0  0  0  0  0  0  0
    0.6015   -2.0928   -0.6565 H   0  0  0  0  0  0  0  0  0  0  0  0
  1  6  2  0  0  0  0
  1  2  1  0  0  0  0
  2  3  2  0  0  0  0
  3  4  1  0  0  0  0
  3 13  1  0  0  0  0
  4 10  1  0  0  0  0
  5  7  1  0  0  0  0
  5  4  2  0  0  0  0
  6  5  1  0  0  0  0
  7  9  2  0  0  0  0
  8  7  2  0  0  0  0
 11  1  1  0  0  0  0
 12  2  1  0  0  0  0
 14  6  1  0  0  0  0
M  END
>  <Charge>
0.0

>  <InChI>
1/C6H4ClNO2/c7-5-3-1-2-4-6(5)8(9)10/h1-4H

>  <Molecular Formula>
C_{6}H_{4}ClNO_{2}

>  <Name>
2-NITROCHLOROBENZENE

>  <SMILES>
c1ccc(c(c1)[N+](=O)[O-])Cl

>  <logK (DICHLOROETHANE)>
6.35

>  <mean polarizability>
15.36

>  <dipole moment>
4.67301449295

$$$$
582
 OpenBabel08101817183D

 20 20  0  0  0  0  0  0  0  0999 V2000
    3.4439   -0.1320    0.1502 C   0  0  0  0  0  0  0  0  0  0  0  0
    2.0163    0.3967    0.1994 C   0  0  0  0  0  0  0  0  0  0  0  0
    0.9686   -0.6666   -0.1056 C   0  0  0  0  0  0  0  0  0  0  0  0
    1.2974   -1.8184   -0.3593 O   0  0  0  0  0  0  0  0  0  0  0  0
   -0.4819   -0.2736   -0.0896 C   0  0  0  0  0  0  0  0  0  0  0  0
   -1.4383   -1.2622   -0.3725 C   0  0  0  0  0  0  0  0  0  0  0  0
   -2.7953   -0.9557   -0.3719 C   0  0  0  0  0  0  0  0  0  0  0  0
   -3.2184    0.3466   -0.0880 C   0  0  0  0  0  0  0  0  0  0  0  0
   -2.2773    1.3383    0.1949 C   0  0  0  0  0  0  0  0  0  0  0  0
   -0.9166    1.0309    0.1943 C   0  0  0  0  0  0  0  0  0  0  0  0
    4.1608    0.6676    0.3759 H   0  0  0  0  0  0  0  0  0  0  0  0
    3.5884   -0.9431    0.8743 H   0  0  0  0  0  0  0  0  0  0  0  0
    3.6786   -0.5399   -0.8405 H   0  0  0  0  0  0  0  0  0  0  0  0
    1.8783    1.2274   -0.5129 H   0  0  0  0  0  0  0  0  0  0  0  0
    1.7888    0.8274    1.1889 H   0  0  0  0  0  0  0  0  0  0  0  0
   -1.0842   -2.2694   -0.5907 H   0  0  0  0  0  0  0  0  0  0  0  0
   -3.5285   -1.7316   -0.5930 H   0  0  0  0  0  0  0  0  0  0  0  0
   -4.2817    0.5877   -0.0872 H   0  0  0  0  0  0  0  0  0  0  0  0
   -2.6044    2.3543    0.4166 H   0  0  0  0  0  0  0  0  0  0  0  0
   -0.1942    1.8154    0.4168 H   0  0  0  0  0  0  0  0  0  0  0  0
  1  2  1  0  0  0  0
  1 11  1  0  0  0  0
  1 12  1  0  0  0  0
  2 15  1  0  0  0  0
  3  5  1  0  0  0  0
  3  2  1  0  0  0  0
  4  3  2  0  0  0  0
  5 10  2  0  0  0  0
  6  7  2  0  0  0  0
  6  5  1  0  0  0  0
  7  8  1  0  0  0  0
  8 18  1  0  0  0  0
  8  9  2  0  0  0  0
  9 19  1  0  0  0  0
 10  9  1  0  0  0  0
 10 20  1  0  0  0  0
 13  1  1  0  0  0  0
 14  2  1  0  0  0  0
 16  6  1  0  0  0  0
 17  7  1  0  0  0  0
M  END
>  <Charge>
0.0

>  <InChI>
1/C9H10O/c1-2-9(10)8-6-4-3-5-7-8/h3-7H,2H2,1H3

>  <Molecular Formula>
C_{9}H_{10}O

>  <Name>
PROPIOPHENONE

>  <SMILES>
CCC(=O)c1ccccc1

>  <logK (DICHLOROETHANE)>
6.41

>  <mean polarizability>
16.72

>  <dipole moment>
2.89495700625

$$$$
583
 OpenBabel08101817183D

 32 31  0  0  0  0  0  0  0  0999 V2000
   -5.1748    0.5315    0.5195 C   0  0  0  0  0  0  0  0  0  0  0  0
   -3.6501    0.4520    0.5959 C   0  0  0  0  0  0  0  0  0  0  0  0
   -3.0976   -0.8780    0.0749 C   0  0  0  0  0  0  0  0  0  0  0  0
   -1.5764   -1.0345    0.1920 C   0  0  0  0  0  0  0  0  0  0  0  0
   -0.7721   -0.0858   -0.7042 C   0  0  0  0  0  0  0  0  0  0  0  0
    0.7394   -0.3513   -0.7137 C   0  0  0  0  0  0  0  0  0  0  0  0
    1.4388   -0.0831    0.6235 C   0  0  0  0  0  0  0  0  0  0  0  0
    2.9469   -0.3586    0.6206 C   0  0  0  0  0  0  0  0  0  0  0  0
    3.7525    0.6076   -0.2465 C   0  0  0  0  0  0  0  0  0  0  0  0
    5.2512    0.3510   -0.2011 C   0  0  0  0  0  0  0  0  0  0  0  0
    5.7903   -0.5406    0.4059 O   0  0  0  0  0  0  0  0  0  0  0  0
    6.0132    1.2312   -0.9291 O   0  0  0  0  0  0  0  0  0  0  0  0
   -5.5508    1.4903    0.9012 H   0  0  0  0  0  0  0  0  0  0  0  0
   -5.6439   -0.2695    1.1091 H   0  0  0  0  0  0  0  0  0  0  0  0
   -5.5259    0.4253   -0.5172 H   0  0  0  0  0  0  0  0  0  0  0  0
   -3.2139    1.2882    0.0277 H   0  0  0  0  0  0  0  0  0  0  0  0
   -3.3245    0.5911    1.6404 H   0  0  0  0  0  0  0  0  0  0  0  0
   -3.3965   -1.0062   -0.9801 H   0  0  0  0  0  0  0  0  0  0  0  0
   -3.5830   -1.6993    0.6275 H   0  0  0  0  0  0  0  0  0  0  0  0
   -1.3045   -2.0719   -0.0655 H   0  0  0  0  0  0  0  0  0  0  0  0
   -1.2852   -0.8971    1.2461 H   0  0  0  0  0  0  0  0  0  0  0  0
   -0.9497    0.9597   -0.4033 H   0  0  0  0  0  0  0  0  0  0  0  0
   -1.1528   -0.1734   -1.7355 H   0  0  0  0  0  0  0  0  0  0  0  0
    1.1953    0.2703   -1.5011 H   0  0  0  0  0  0  0  0  0  0  0  0
    0.9220   -1.3989   -1.0096 H   0  0  0  0  0  0  0  0  0  0  0  0
    1.2539    0.9624    0.9273 H   0  0  0  0  0  0  0  0  0  0  0  0
    0.9814   -0.7082    1.4046 H   0  0  0  0  0  0  0  0  0  0  0  0
    3.1399   -1.3874    0.2813 H   0  0  0  0  0  0  0  0  0  0  0  0
    3.3359   -0.3071    1.6472 H   0  0  0  0  0  0  0  0  0  0  0  0
    3.5710    1.6496    0.0706 H   0  0  0  0  0  0  0  0  0  0  0  0
    3.4369    0.5544   -1.3018 H   0  0  0  0  0  0  0  0  0  0  0  0
    5.4329    1.8862   -1.3544 H   0  0  0  0  0  0  0  0  0  0  0  0
  1  2  1  0  0  0  0
  1 13  1  0  0  0  0
  1 14  1  0  0  0  0
  2 17  1  0  0  0  0
  3  4  1  0  0  0  0
  3  2  1  0  0  0  0
  3 19  1  0  0  0  0
  4 21  1  0  0  0  0
  5 22  1  0  0  0  0
  5  4  1  0  0  0  0
  6  5  1  0  0  0  0
  6  7  1  0  0  0  0
  7 26  1  0  0  0  0
  7 27  1  0  0  0  0
  8  7  1  0  0  0  0
  8 29  1  0  0  0  0
  9 10  1  0  0  0  0
  9 30  1  0  0  0  0
  9  8  1  0  0  0  0
 10 11  2  0  0  0  0
 12 10  1  0  0  0  0
 15  1  1  0  0  0  0
 16  2  1  0  0  0  0
 18  3  1  0  0  0  0
 20  4  1  0  0  0  0
 23  5  1  0  0  0  0
 24  6  1  0  0  0  0
 25  6  1  0  0  0  0
 28  8  1  0  0  0  0
 31  9  1  0  0  0  0
 32 12  1  0  0  0  0
M  END
>  <Charge>
0.0

>  <InChI>
1/C10H20O2/c1-2-3-4-5-6-7-8-9-10(11)12/h2-9H2,1H3,(H,11,12)

>  <Molecular Formula>
C_{10}H_{20}O_{2}

>  <Name>
DECANOIC ACID

>  <SMILES>
CCCCCCCCCC(=O)O

>  <logK (DICHLOROETHANE)>
6.83

>  <dipole moment>
4.23550244488

>  <mean polarizability>
20.41

$$$$
584
 OpenBabel08101817183D

 15 15  0  0  0  0  0  0  0  0999 V2000
   -2.2193   -0.3330   -0.1754 C   0  0  0  0  0  0  0  0  0  0  0  0
   -0.7378   -0.0877   -0.0570 C   0  0  0  0  0  0  0  0  0  0  0  0
   -0.2336    1.2169    0.0543 C   0  0  0  0  0  0  0  0  0  0  0  0
    1.1366    1.4451    0.1639 C   0  0  0  0  0  0  0  0  0  0  0  0
    2.0396    0.3796    0.1655 C   0  0  0  0  0  0  0  0  0  0  0  0
    1.5365   -0.9147    0.0548 C   0  0  0  0  0  0  0  0  0  0  0  0
    0.1663   -1.1564   -0.0556 C   0  0  0  0  0  0  0  0  0  0  0  0
    2.6403   -2.2669    0.0539 Cl  0  0  0  0  0  0  0  0  0  0  0  0
   -2.4457   -1.4031   -0.2534 H   0  0  0  0  0  0  0  0  0  0  0  0
   -2.7570    0.0641    0.6974 H   0  0  0  0  0  0  0  0  0  0  0  0
   -2.6332    0.1663   -1.0631 H   0  0  0  0  0  0  0  0  0  0  0  0
   -0.9250    2.0608    0.0547 H   0  0  0  0  0  0  0  0  0  0  0  0
    1.5138    2.4644    0.2497 H   0  0  0  0  0  0  0  0  0  0  0  0
    3.1116    0.5462    0.2505 H   0  0  0  0  0  0  0  0  0  0  0  0
   -0.1930   -2.1816   -0.1403 H   0  0  0  0  0  0  0  0  0  0  0  0
  1  2  1  0  0  0  0
  1 10  1  0  0  0  0
  2  7  2  0  0  0  0
  2  3  1  0  0  0  0
  3 12  1  0  0  0  0
  3  4  2  0  0  0  0
  4  5  1  0  0  0  0
  4 13  1  0  0  0  0
  5 14  1  0  0  0  0
  6  5  2  0  0  0  0
  7  6  1  0  0  0  0
  8  6  1  0  0  0  0
  9  1  1  0  0  0  0
 11  1  1  0  0  0  0
 15  7  1  0  0  0  0
M  END
>  <Charge>
0.0

>  <InChI>
1/C7H7Cl/c1-6-3-2-4-7(8)5-6/h2-5H,1H3

>  <Molecular Formula>
C_{7}H_{7}Cl

>  <Name>
3-CHLOROTOLUENE

>  <SMILES>
Cc1cccc(c1)Cl

>  <logK (DIIODOMETHANE)>
4.12

>  <mean polarizability>
14.64

>  <dipole moment>
1.99730036932

$$$$
585
 OpenBabel08101817183D

 15 15  0  0  0  0  0  0  0  0999 V2000
    2.2707   -0.0269    0.1383 C   0  0  0  0  0  0  0  0  0  0  0  0
    0.7677   -0.0147    0.0453 C   0  0  0  0  0  0  0  0  0  0  0  0
    0.0477   -1.1691   -0.2848 C   0  0  0  0  0  0  0  0  0  0  0  0
   -1.3459   -1.1618   -0.3719 C   0  0  0  0  0  0  0  0  0  0  0  0
   -2.0354    0.0231   -0.1241 C   0  0  0  0  0  0  0  0  0  0  0  0
   -1.3477    1.1915    0.2073 C   0  0  0  0  0  0  0  0  0  0  0  0
    0.0430    1.1617    0.2886 C   0  0  0  0  0  0  0  0  0  0  0  0
   -3.7768    0.0486   -0.2287 Cl  0  0  0  0  0  0  0  0  0  0  0  0
    2.6107    0.2624    1.1432 H   0  0  0  0  0  0  0  0  0  0  0  0
    2.6775   -1.0217   -0.0806 H   0  0  0  0  0  0  0  0  0  0  0  0
    2.7201    0.6841   -0.5700 H   0  0  0  0  0  0  0  0  0  0  0  0
    0.5841   -2.0994   -0.4793 H   0  0  0  0  0  0  0  0  0  0  0  0
   -1.8936   -2.0667   -0.6297 H   0  0  0  0  0  0  0  0  0  0  0  0
   -1.8986    2.1109    0.3984 H   0  0  0  0  0  0  0  0  0  0  0  0
    0.5763    2.0781    0.5482 H   0  0  0  0  0  0  0  0  0  0  0  0
  1  9  1  0  0  0  0
  2  1  1  0  0  0  0
  2  7  2  0  0  0  0
  3  2  1  0  0  0  0
  4  3  2  0  0  0  0
  4  5  1  0  0  0  0
  5  6  2  0  0  0  0
  6  7  1  0  0  0  0
  6 14  1  0  0  0  0
  7 15  1  0  0  0  0
  8  5  1  0  0  0  0
 10  1  1  0  0  0  0
 11  1  1  0  0  0  0
 12  3  1  0  0  0  0
 13  4  1  0  0  0  0
M  END
>  <Charge>
0.0

>  <InChI>
1/C7H7Cl/c1-6-2-4-7(8)5-3-6/h2-5H,1H3

>  <Molecular Formula>
C_{7}H_{7}Cl

>  <Name>
4-CHLOROTOLUENE

>  <SMILES>
Cc1ccc(cc1)Cl

>  <logK (DIIODOMETHANE)>
4.0

>  <mean polarizability>
14.71

>  <dipole moment>
2.15087558564

$$$$
586
 OpenBabel08101817183D

 15 14  0  0  0  0  0  0  0  0999 V2000
   -2.2737    0.5522   -0.1100 C   0  0  0  0  0  0  0  0  0  0  0  0
   -1.2542   -0.5779   -0.3161 C   0  0  0  0  0  0  0  0  0  0  0  0
    0.0684   -0.2940    0.3314 C   0  0  0  0  0  0  0  0  0  0  0  0
    1.2350   -0.1837   -0.3136 C   0  0  0  0  0  0  0  0  0  0  0  0
    2.5633    0.1180    0.3312 C   0  0  0  0  0  0  0  0  0  0  0  0
   -2.4450    0.7407    0.9594 H   0  0  0  0  0  0  0  0  0  0  0  0
   -1.9164    1.4887   -0.5597 H   0  0  0  0  0  0  0  0  0  0  0  0
   -3.2418    0.3013   -0.5652 H   0  0  0  0  0  0  0  0  0  0  0  0
   -1.1045   -0.7566   -1.3921 H   0  0  0  0  0  0  0  0  0  0  0  0
   -1.6735   -1.5101    0.1006 H   0  0  0  0  0  0  0  0  0  0  0  0
    0.0472   -0.1549    1.4198 H   0  0  0  0  0  0  0  0  0  0  0  0
    1.2352   -0.3227   -1.3998 H   0  0  0  0  0  0  0  0  0  0  0  0
    2.8371   -0.6422    1.0772 H   0  0  0  0  0  0  0  0  0  0  0  0
    3.3699    0.1523   -0.4113 H   0  0  0  0  0  0  0  0  0  0  0  0
    2.5531    1.0888    0.8482 H   0  0  0  0  0  0  0  0  0  0  0  0
  1  6  1  0  0  0  0
  2  1  1  0  0  0  0
  2 10  1  0  0  0  0
  2  3  1  0  0  0  0
  3 11  1  0  0  0  0
  4  5  1  0  0  0  0
  4  3  2  0  0  0  0
  5 15  1  0  0  0  0
  5 13  1  0  0  0  0
  7  1  1  0  0  0  0
  8  1  1  0  0  0  0
  9  2  1  0  0  0  0
 12  4  1  0  0  0  0
 14  5  1  0  0  0  0
M  END
>  <Charge>
0.0

>  <InChI>
1/C5H10/c1-3-5-4-2/h3,5H,4H2,1-2H3/b5-3+

>  <Molecular Formula>
C_{5}H_{10}

>  <Name>
(2E)-PENT-2-ENE

>  <SMILES>
CC/C=C/C

>  <logK (1-HEXADECENE)>
2.15097959699

>  <logK (DIMETHYLFORMAMIDE)>
1.8

>  <mean polarizability>
10.02

>  <dipole moment>
0.037482208984

$$$$
587
 OpenBabel08101817183D

 18 17  0  0  0  0  0  0  0  0999 V2000
    2.6449   -0.5680    0.5415 C   0  0  0  0  0  0  0  0  0  0  0  0
    1.2337   -0.7951   -0.0023 C   0  0  0  0  0  0  0  0  0  0  0  0
    0.3009    0.3565    0.2647 C   0  0  0  0  0  0  0  0  0  0  0  0
   -0.9895    0.4137   -0.1057 C   0  0  0  0  0  0  0  0  0  0  0  0
   -1.8409    1.6258    0.2155 C   0  0  0  0  0  0  0  0  0  0  0  0
   -1.6301   -0.7312   -0.8548 C   0  0  0  0  0  0  0  0  0  0  0  0
    2.6290   -0.4173    1.6302 H   0  0  0  0  0  0  0  0  0  0  0  0
    3.3006   -1.4232    0.3315 H   0  0  0  0  0  0  0  0  0  0  0  0
    3.1028    0.3240    0.0909 H   0  0  0  0  0  0  0  0  0  0  0  0
    1.2859   -0.9908   -1.0884 H   0  0  0  0  0  0  0  0  0  0  0  0
    0.8180   -1.7223    0.4312 H   0  0  0  0  0  0  0  0  0  0  0  0
    0.7258    1.2088    0.8063 H   0  0  0  0  0  0  0  0  0  0  0  0
   -1.9032    1.8015    1.2992 H   0  0  0  0  0  0  0  0  0  0  0  0
   -2.8666    1.5103   -0.1562 H   0  0  0  0  0  0  0  0  0  0  0  0
   -1.4301    2.5406   -0.2354 H   0  0  0  0  0  0  0  0  0  0  0  0
   -1.1130   -0.9318   -1.8066 H   0  0  0  0  0  0  0  0  0  0  0  0
   -2.6837   -0.5331   -1.0840 H   0  0  0  0  0  0  0  0  0  0  0  0
   -1.5843   -1.6684   -0.2775 H   0  0  0  0  0  0  0  0  0  0  0  0
  1  7  1  0  0  0  0
  2  3  1  0  0  0  0
  2 11  1  0  0  0  0
  2  1  1  0  0  0  0
  3 12  1  0  0  0  0
  4  5  1  0  0  0  0
  4  3  2  0  0  0  0
  5 13  1  0  0  0  0
  6 18  1  0  0  0  0
  6  4  1  0  0  0  0
  8  1  1  0  0  0  0
  9  1  1  0  0  0  0
 10  2  1  0  0  0  0
 14  5  1  0  0  0  0
 15  5  1  0  0  0  0
 16  6  1  0  0  0  0
 17  6  1  0  0  0  0
M  END
>  <Charge>
0.0

>  <InChI>
1/C6H12/c1-4-5-6(2)3/h5H,4H2,1-3H3

>  <Molecular Formula>
C_{6}H_{12}

>  <Name>
2-METHYLPENT-2-EN

>  <SMILES>
CCC=C(C)C

>  <logK (1-HEXADECENE)>
2.51430633233

>  <logK (DIMETHYLFORMAMIDE)>
2.29

>  <logK (N-METHYLPYRROLIDONE)>
2.24

>  <logK (PHENYLAMINE)>
2.042

>  <mean polarizability>
11.76

>  <dipole moment>
0.297731022744

$$$$
588
 OpenBabel08101817183D

 30 29  0  0  0  0  0  0  0  0999 V2000
   -4.7212   -0.4022    1.1181 C   0  0  0  0  0  0  0  0  0  0  0  0
   -3.2453   -0.5515    0.7478 C   0  0  0  0  0  0  0  0  0  0  0  0
   -2.7561    0.5429   -0.2056 C   0  0  0  0  0  0  0  0  0  0  0  0
   -1.2919    0.4084   -0.6432 C   0  0  0  0  0  0  0  0  0  0  0  0
   -0.2727    0.6408    0.4784 C   0  0  0  0  0  0  0  0  0  0  0  0
    1.1909    0.6472    0.0182 C   0  0  0  0  0  0  0  0  0  0  0  0
    1.7112   -0.7091   -0.4646 C   0  0  0  0  0  0  0  0  0  0  0  0
    3.2009   -0.6938   -0.8589 C   0  0  0  0  0  0  0  0  0  0  0  0
    4.1269   -0.4356    0.2920 C   0  0  0  0  0  0  0  0  0  0  0  0
    5.0254    0.5497    0.3622 C   0  0  0  0  0  0  0  0  0  0  0  0
   -5.3604   -0.4323    0.2237 H   0  0  0  0  0  0  0  0  0  0  0  0
   -5.0532   -1.2037    1.7918 H   0  0  0  0  0  0  0  0  0  0  0  0
   -4.9084    0.5562    1.6238 H   0  0  0  0  0  0  0  0  0  0  0  0
   -2.6385   -0.5478    1.6663 H   0  0  0  0  0  0  0  0  0  0  0  0
   -3.0801   -1.5353    0.2778 H   0  0  0  0  0  0  0  0  0  0  0  0
   -2.9042    1.5290    0.2679 H   0  0  0  0  0  0  0  0  0  0  0  0
   -3.3991    0.5391   -1.1013 H   0  0  0  0  0  0  0  0  0  0  0  0
   -1.1435   -0.5885   -1.0898 H   0  0  0  0  0  0  0  0  0  0  0  0
   -1.0933    1.1346   -1.4490 H   0  0  0  0  0  0  0  0  0  0  0  0
   -0.3958   -0.1216    1.2650 H   0  0  0  0  0  0  0  0  0  0  0  0
   -0.4975    1.6086    0.9569 H   0  0  0  0  0  0  0  0  0  0  0  0
    1.8266    0.9958    0.8467 H   0  0  0  0  0  0  0  0  0  0  0  0
    1.3149    1.3895   -0.7896 H   0  0  0  0  0  0  0  0  0  0  0  0
    1.5556   -1.4613    0.3278 H   0  0  0  0  0  0  0  0  0  0  0  0
    1.1267   -1.0527   -1.3313 H   0  0  0  0  0  0  0  0  0  0  0  0
    3.3715    0.0572   -1.6466 H   0  0  0  0  0  0  0  0  0  0  0  0
    3.4505   -1.6742   -1.3002 H   0  0  0  0  0  0  0  0  0  0  0  0
    4.0382   -1.1298    1.1361 H   0  0  0  0  0  0  0  0  0  0  0  0
    5.1487    1.2666   -0.4526 H   0  0  0  0  0  0  0  0  0  0  0  0
    5.6733    0.6738    1.2300 H   0  0  0  0  0  0  0  0  0  0  0  0
  1 13  1  0  0  0  0
  1 12  1  0  0  0  0
  2  1  1  0  0  0  0
  2 14  1  0  0  0  0
  3 16  1  0  0  0  0
  3  2  1  0  0  0  0
  4  3  1  0  0  0  0
  4  5  1  0  0  0  0
  5 21  1  0  0  0  0
  5 20  1  0  0  0  0
  6  5  1  0  0  0  0
  6 22  1  0  0  0  0
  7  6  1  0  0  0  0
  7 24  1  0  0  0  0
  8  7  1  0  0  0  0
  8  9  1  0  0  0  0
  9 10  2  0  0  0  0
  9 28  1  0  0  0  0
 10 30  1  0  0  0  0
 11  1  1  0  0  0  0
 15  2  1  0  0  0  0
 17  3  1  0  0  0  0
 18  4  1  0  0  0  0
 19  4  1  0  0  0  0
 23  6  1  0  0  0  0
 25  7  1  0  0  0  0
 26  8  1  0  0  0  0
 27  8  1  0  0  0  0
 29 10  1  0  0  0  0
M  END
>  <Charge>
0.0

>  <InChI>
1/C10H20/c1-3-5-7-9-10-8-6-4-2/h3H,1,4-10H2,2H3

>  <Molecular Formula>
C_{10}H_{20}

>  <Name>
DECENE

>  <SMILES>
CCCCCCCCC=C

>  <logK (DIMETHYLFORMAMIDE)>
3.75

>  <mean polarizability>
19.38

>  <dipole moment>
0.387102479471

$$$$
589
 OpenBabel08101817183D

 36 35  0  0  0  0  0  0  0  0999 V2000
    4.9935    1.6533    1.0548 C   0  0  0  0  0  0  0  0  0  0  0  0
    3.8318    0.6592    1.0442 C   0  0  0  0  0  0  0  0  0  0  0  0
    3.8350   -0.2462   -0.1911 C   0  0  0  0  0  0  0  0  0  0  0  0
    2.7304   -1.3100   -0.2159 C   0  0  0  0  0  0  0  0  0  0  0  0
    1.3081   -0.7607   -0.3642 C   0  0  0  0  0  0  0  0  0  0  0  0
    0.2516   -1.8656   -0.4626 C   0  0  0  0  0  0  0  0  0  0  0  0
   -1.1816   -1.3708   -0.6972 C   0  0  0  0  0  0  0  0  0  0  0  0
   -1.7854   -0.5929    0.4777 C   0  0  0  0  0  0  0  0  0  0  0  0
   -3.2651   -0.2314    0.3044 C   0  0  0  0  0  0  0  0  0  0  0  0
   -3.5495    0.7722   -0.8184 C   0  0  0  0  0  0  0  0  0  0  0  0
   -5.0068    1.1532   -0.9247 C   0  0  0  0  0  0  0  0  0  0  0  0
   -5.5198    2.0284   -1.7929 C   0  0  0  0  0  0  0  0  0  0  0  0
    4.9766    2.2881    1.9510 H   0  0  0  0  0  0  0  0  0  0  0  0
    5.9618    1.1323    1.0333 H   0  0  0  0  0  0  0  0  0  0  0  0
    4.9573    2.3154    0.1775 H   0  0  0  0  0  0  0  0  0  0  0  0
    3.8755    0.0305    1.9492 H   0  0  0  0  0  0  0  0  0  0  0  0
    2.8809    1.2109    1.1033 H   0  0  0  0  0  0  0  0  0  0  0  0
    3.7597    0.3781   -1.0984 H   0  0  0  0  0  0  0  0  0  0  0  0
    4.8144   -0.7490   -0.2530 H   0  0  0  0  0  0  0  0  0  0  0  0
    2.9257   -2.0058   -1.0485 H   0  0  0  0  0  0  0  0  0  0  0  0
    2.7912   -1.9171    0.7040 H   0  0  0  0  0  0  0  0  0  0  0  0
    1.2572   -0.1309   -1.2699 H   0  0  0  0  0  0  0  0  0  0  0  0
    1.0751   -0.0973    0.4826 H   0  0  0  0  0  0  0  0  0  0  0  0
    0.5309   -2.5451   -1.2847 H   0  0  0  0  0  0  0  0  0  0  0  0
    0.2785   -2.4768    0.4561 H   0  0  0  0  0  0  0  0  0  0  0  0
   -1.1992   -0.7519   -1.6092 H   0  0  0  0  0  0  0  0  0  0  0  0
   -1.8270   -2.2399   -0.9078 H   0  0  0  0  0  0  0  0  0  0  0  0
   -1.6747   -1.1995    1.3918 H   0  0  0  0  0  0  0  0  0  0  0  0
   -1.2101    0.3305    0.6551 H   0  0  0  0  0  0  0  0  0  0  0  0
   -3.6460    0.1850    1.2510 H   0  0  0  0  0  0  0  0  0  0  0  0
   -3.8463   -1.1514    0.1214 H   0  0  0  0  0  0  0  0  0  0  0  0
   -2.9437    1.6796   -0.6544 H   0  0  0  0  0  0  0  0  0  0  0  0
   -3.2136    0.3615   -1.7837 H   0  0  0  0  0  0  0  0  0  0  0  0
   -5.6856    0.6580   -0.2215 H   0  0  0  0  0  0  0  0  0  0  0  0
   -4.8947    2.5534   -2.5187 H   0  0  0  0  0  0  0  0  0  0  0  0
   -6.5860    2.2524   -1.8105 H   0  0  0  0  0  0  0  0  0  0  0  0
  1 13  1  0  0  0  0
  2  1  1  0  0  0  0
  2 17  1  0  0  0  0
  2 16  1  0  0  0  0
  3  2  1  0  0  0  0
  4  3  1  0  0  0  0
  4 21  1  0  0  0  0
  5  4  1  0  0  0  0
  5 23  1  0  0  0  0
  6  5  1  0  0  0  0
  6 25  1  0  0  0  0
  7  6  1  0  0  0  0
  7  8  1  0  0  0  0
  8 29  1  0  0  0  0
  8 28  1  0  0  0  0
  9  8  1  0  0  0  0
  9 30  1  0  0  0  0
 10 32  1  0  0  0  0
 10  9  1  0  0  0  0
 11 10  1  0  0  0  0
 11 34  1  0  0  0  0
 12 11  2  0  0  0  0
 14  1  1  0  0  0  0
 15  1  1  0  0  0  0
 18  3  1  0  0  0  0
 19  3  1  0  0  0  0
 20  4  1  0  0  0  0
 22  5  1  0  0  0  0
 24  6  1  0  0  0  0
 26  7  1  0  0  0  0
 27  7  1  0  0  0  0
 31  9  1  0  0  0  0
 33 10  1  0  0  0  0
 35 12  1  0  0  0  0
 36 12  1  0  0  0  0
M  END
>  <Charge>
0.0

>  <InChI>
1/C12H24/c1-3-5-7-9-11-12-10-8-6-4-2/h3H,1,4-12H2,2H3

>  <Molecular Formula>
C_{12}H_{24}

>  <Name>
DODECENE

>  <SMILES>
CCCCCCCCCCC=C

>  <logK (DIMETHYLFORMAMIDE)>
4.58

>  <dipole moment>
0.552924701995

>  <mean polarizability>
23.24

$$$$
590
 OpenBabel08101817183D

 13 12  0  0  0  0  0  0  0  0999 V2000
    2.2723    0.2205    0.3335 C   0  0  0  0  0  0  0  0  0  0  0  0
    1.1820   -0.3374   -0.1958 C   0  0  0  0  0  0  0  0  0  0  0  0
   -0.1637    0.3290   -0.2999 C   0  0  0  0  0  0  0  0  0  0  0  0
   -1.2575   -0.4608    0.3674 C   0  0  0  0  0  0  0  0  0  0  0  0
   -2.0508   -0.0004    1.3361 C   0  0  0  0  0  0  0  0  0  0  0  0
    2.2547    1.2338    0.7396 H   0  0  0  0  0  0  0  0  0  0  0  0
    3.2215   -0.3129    0.3787 H   0  0  0  0  0  0  0  0  0  0  0  0
    1.2420   -1.3583   -0.5873 H   0  0  0  0  0  0  0  0  0  0  0  0
   -0.1172    1.3438    0.1215 H   0  0  0  0  0  0  0  0  0  0  0  0
   -0.4161    0.4360   -1.3715 H   0  0  0  0  0  0  0  0  0  0  0  0
   -1.3880   -1.4887    0.0136 H   0  0  0  0  0  0  0  0  0  0  0  0
   -2.8291   -0.6211    1.7798 H   0  0  0  0  0  0  0  0  0  0  0  0
   -1.9504    1.0163    1.7209 H   0  0  0  0  0  0  0  0  0  0  0  0
  1  7  1  0  0  0  0
  1  6  1  0  0  0  0
  2  1  2  0  0  0  0
  3  2  1  0  0  0  0
  3  9  1  0  0  0  0
  3  4  1  0  0  0  0
  4  5  2  0  0  0  0
  5 13  1  0  0  0  0
  5 12  1  0  0  0  0
  8  2  1  0  0  0  0
 10  3  1  0  0  0  0
 11  4  1  0  0  0  0
M  END
>  <Charge>
0.0

>  <InChI>
1/C5H8/c1-3-5-4-2/h3-4H,1-2,5H2

>  <Molecular Formula>
C_{5}H_{8}

>  <Name>
1,4-PENTADIENE

>  <SMILES>
C=CCC=C

>  <logK (DIMETHYLFORMAMIDE)>
1.92

>  <mean polarizability>
9.65

>  <dipole moment>
0.318834783281

$$$$
591
 OpenBabel08101817183D

 13 13  0  0  0  0  0  0  0  0999 V2000
   -0.4759   -1.0004   -0.2172 C   0  0  0  0  0  0  0  0  0  0  0  0
    1.0471   -0.6797   -0.1954 C   0  0  0  0  0  0  0  0  0  0  0  0
    1.1079    0.7858    0.1451 C   0  0  0  0  0  0  0  0  0  0  0  0
   -0.1035    1.3255    0.3134 C   0  0  0  0  0  0  0  0  0  0  0  0
   -1.2145    0.3280    0.1189 C   0  0  0  0  0  0  0  0  0  0  0  0
   -0.7820   -1.3810   -1.1993 H   0  0  0  0  0  0  0  0  0  0  0  0
   -0.7223   -1.7810    0.5129 H   0  0  0  0  0  0  0  0  0  0  0  0
    1.5301   -0.8880   -1.1637 H   0  0  0  0  0  0  0  0  0  0  0  0
    1.5896   -1.2877    0.5466 H   0  0  0  0  0  0  0  0  0  0  0  0
    2.0487    1.3288    0.2393 H   0  0  0  0  0  0  0  0  0  0  0  0
   -0.2889    2.3704    0.5640 H   0  0  0  0  0  0  0  0  0  0  0  0
   -1.8980    0.6394   -0.6875 H   0  0  0  0  0  0  0  0  0  0  0  0
   -1.8386    0.2398    1.0228 H   0  0  0  0  0  0  0  0  0  0  0  0
  1  2  1  0  0  0  0
  1  5  1  0  0  0  0
  1  7  1  0  0  0  0
  2  3  1  0  0  0  0
  2  9  1  0  0  0  0
  3 10  1  0  0  0  0
  3  4  2  0  0  0  0
  4 11  1  0  0  0  0
  5  4  1  0  0  0  0
  5 13  1  0  0  0  0
  6  1  1  0  0  0  0
  8  2  1  0  0  0  0
 12  5  1  0  0  0  0
M  END
>  <Charge>
0.0

>  <InChI>
1/C5H8/c1-2-4-5-3-1/h1-2H,3-5H2

>  <Molecular Formula>
C_{5}H_{8}

>  <Name>
CYCLOPENTENE

>  <SMILES>
C1CC=CC1

>  <logK (4-FORMYLMORPHOLINE)>
1.85

>  <logK (DIMETHYLFORMAMIDE)>
2.15

>  <logK (N-METHYLPYRROLIDONE)>
2.08

>  <mean polarizability>
8.77

>  <dipole moment>
0.259262491451

$$$$
592
 OpenBabel08101817183D

 19 19  0  0  0  0  0  0  0  0999 V2000
   -0.7906   -1.3156    0.0059 C   0  0  0  0  0  0  0  0  0  0  0  0
   -1.5279   -0.0354    0.4112 C   0  0  0  0  0  0  0  0  0  0  0  0
   -1.0975    1.2360   -0.3387 C   0  0  0  0  0  0  0  0  0  0  0  0
    0.2774    1.7628   -0.0126 C   0  0  0  0  0  0  0  0  0  0  0  0
    1.4261    1.0725   -0.0315 C   0  0  0  0  0  0  0  0  0  0  0  0
    1.5977   -0.3840   -0.3828 C   0  0  0  0  0  0  0  0  0  0  0  0
    0.6951   -1.3714    0.3749 C   0  0  0  0  0  0  0  0  0  0  0  0
   -0.8958   -1.4611   -1.0840 H   0  0  0  0  0  0  0  0  0  0  0  0
   -1.2984   -2.1732    0.4745 H   0  0  0  0  0  0  0  0  0  0  0  0
   -2.6046   -0.1859    0.2356 H   0  0  0  0  0  0  0  0  0  0  0  0
   -1.4095    0.1289    1.4945 H   0  0  0  0  0  0  0  0  0  0  0  0
   -1.1644    1.0387   -1.4252 H   0  0  0  0  0  0  0  0  0  0  0  0
   -1.8337    2.0272   -0.1380 H   0  0  0  0  0  0  0  0  0  0  0  0
    0.3357    2.8236    0.2469 H   0  0  0  0  0  0  0  0  0  0  0  0
    2.3415    1.6180    0.2140 H   0  0  0  0  0  0  0  0  0  0  0  0
    2.6464   -0.6655   -0.2112 H   0  0  0  0  0  0  0  0  0  0  0  0
    1.4289   -0.5201   -1.4676 H   0  0  0  0  0  0  0  0  0  0  0  0
    1.0630   -2.3902    0.1759 H   0  0  0  0  0  0  0  0  0  0  0  0
    0.8106   -1.2053    1.4583 H   0  0  0  0  0  0  0  0  0  0  0  0
  1  7  1  0  0  0  0
  1  2  1  0  0  0  0
  1  9  1  0  0  0  0
  2 11  1  0  0  0  0
  3 13  1  0  0  0  0
  3  4  1  0  0  0  0
  3  2  1  0  0  0  0
  4 14  1  0  0  0  0
  5  4  2  0  0  0  0
  5 15  1  0  0  0  0
  6 16  1  0  0  0  0
  6  5  1  0  0  0  0
  6  7  1  0  0  0  0
  7 19  1  0  0  0  0
  8  1  1  0  0  0  0
 10  2  1  0  0  0  0
 12  3  1  0  0  0  0
 17  6  1  0  0  0  0
 18  7  1  0  0  0  0
M  END
>  <Charge>
0.0

>  <InChI>
1/C7H12/c1-2-4-6-7-5-3-1/h1-2H,3-7H2

>  <Molecular Formula>
C_{7}H_{12}

>  <Name>
CYCLOHEPTENE

>  <SMILES>
C1CCC=CCC1

>  <logK (DIMETHYLFORMAMIDE)>
3.1

>  <logK (N-METHYLPYRROLIDONE)>
3.09

>  <mean polarizability>
12.57

>  <dipole moment>
0.429197109882

$$$$
593
 OpenBabel08101817183D

 22 22  0  0  0  0  0  0  0  0999 V2000
   -0.5760   -1.4754    0.5149 C   0  0  0  0  0  0  0  0  0  0  0  0
    0.8067   -1.6932   -0.1199 C   0  0  0  0  0  0  0  0  0  0  0  0
    1.5752   -0.4428   -0.5822 C   0  0  0  0  0  0  0  0  0  0  0  0
    1.4975    0.7766    0.3811 C   0  0  0  0  0  0  0  0  0  0  0  0
    0.6554    1.8854   -0.1900 C   0  0  0  0  0  0  0  0  0  0  0  0
   -0.6837    1.9177   -0.2473 C   0  0  0  0  0  0  0  0  0  0  0  0
   -1.6533    0.9060    0.3148 C   0  0  0  0  0  0  0  0  0  0  0  0
   -1.5721   -0.5515   -0.2165 C   0  0  0  0  0  0  0  0  0  0  0  0
   -0.4531   -1.1048    1.5453 H   0  0  0  0  0  0  0  0  0  0  0  0
   -1.0336   -2.4706    0.6262 H   0  0  0  0  0  0  0  0  0  0  0  0
    1.4202   -2.2432    0.6120 H   0  0  0  0  0  0  0  0  0  0  0  0
    0.7034   -2.3666   -0.9858 H   0  0  0  0  0  0  0  0  0  0  0  0
    1.1977   -0.1260   -1.5648 H   0  0  0  0  0  0  0  0  0  0  0  0
    2.6255   -0.7274   -0.7432 H   0  0  0  0  0  0  0  0  0  0  0  0
    2.5080    1.1571    0.5811 H   0  0  0  0  0  0  0  0  0  0  0  0
    1.0954    0.4537    1.3544 H   0  0  0  0  0  0  0  0  0  0  0  0
    1.1987    2.7093   -0.6616 H   0  0  0  0  0  0  0  0  0  0  0  0
   -1.1372    2.7733   -0.7554 H   0  0  0  0  0  0  0  0  0  0  0  0
   -1.5572    0.8676    1.4141 H   0  0  0  0  0  0  0  0  0  0  0  0
   -2.6690    1.2798    0.1239 H   0  0  0  0  0  0  0  0  0  0  0  0
   -1.3715   -0.5408   -1.2989 H   0  0  0  0  0  0  0  0  0  0  0  0
   -2.5770   -0.9844   -0.1025 H   0  0  0  0  0  0  0  0  0  0  0  0
  1 10  1  0  0  0  0
  1  9  1  0  0  0  0
  2  1  1  0  0  0  0
  2 11  1  0  0  0  0
  3  2  1  0  0  0  0
  3  4  1  0  0  0  0
  4 15  1  0  0  0  0
  4 16  1  0  0  0  0
  5  4  1  0  0  0  0
  6  5  2  0  0  0  0
  6  7  1  0  0  0  0
  7 19  1  0  0  0  0
  8 22  1  0  0  0  0
  8  7  1  0  0  0  0
  8  1  1  0  0  0  0
 12  2  1  0  0  0  0
 13  3  1  0  0  0  0
 14  3  1  0  0  0  0
 17  5  1  0  0  0  0
 18  6  1  0  0  0  0
 20  7  1  0  0  0  0
 21  8  1  0  0  0  0
M  END
>  <Charge>
0.0

>  <InChI>
1/C8H14/c1-2-4-6-8-7-5-3-1/h1-2H,3-8H2

>  <Molecular Formula>
C_{8}H_{14}

>  <Name>
CYCLOOCTENE

>  <SMILES>
C1CCCC=CCC1

>  <logK (DIMETHYLFORMAMIDE)>
3.5

>  <logK (N-METHYLPYRROLIDONE)>
3.6

>  <mean polarizability>
14.33

>  <dipole moment>
0.52713916057

$$$$
594
 OpenBabel08101817183D

 11 11  0  0  0  0  0  0  0  0999 V2000
   -1.1121    0.0575   -0.1230 C   0  0  0  0  0  0  0  0  0  0  0  0
   -0.2507   -1.1676   -0.0379 C   0  0  0  0  0  0  0  0  0  0  0  0
    1.0403   -0.7865    0.1089 C   0  0  0  0  0  0  0  0  0  0  0  0
    1.1137    0.6750    0.1295 C   0  0  0  0  0  0  0  0  0  0  0  0
   -0.1325    1.1875   -0.0046 C   0  0  0  0  0  0  0  0  0  0  0  0
   -1.6798    0.0995   -1.0696 H   0  0  0  0  0  0  0  0  0  0  0  0
   -1.8737    0.0845    0.6765 H   0  0  0  0  0  0  0  0  0  0  0  0
   -0.6299   -2.1851   -0.0887 H   0  0  0  0  0  0  0  0  0  0  0  0
    1.8985   -1.4499    0.1986 H   0  0  0  0  0  0  0  0  0  0  0  0
    2.0339    1.2464    0.2366 H   0  0  0  0  0  0  0  0  0  0  0  0
   -0.4078    2.2388   -0.0262 H   0  0  0  0  0  0  0  0  0  0  0  0
  1  2  1  0  0  0  0
  1  5  1  0  0  0  0
  1  7  1  0  0  0  0
  2  3  2  0  0  0  0
  3  4  1  0  0  0  0
  3  9  1  0  0  0  0
  4 10  1  0  0  0  0
  5  4  2  0  0  0  0
  6  1  1  0  0  0  0
  8  2  1  0  0  0  0
 11  5  1  0  0  0  0
M  END
>  <Charge>
0.0

>  <InChI>
1/C5H6/c1-2-4-5-3-1/h1-4H,5H2

>  <Molecular Formula>
C_{5}H_{6}

>  <Name>
CYCLOPENTADIENE

>  <SMILES>
C1C=CC=C1

>  <logK (DIMETHYLFORMAMIDE)>
2.5

>  <logK (N-METHYLPYRROLIDONE)>
2.44

>  <mean polarizability>
8.51

>  <dipole moment>
0.537613015756

$$$$
595
 OpenBabel08101817183D

  5  4  0  0  0  0  0  0  0  0999 V2000
   -0.0034   -0.0789    0.0013 C   0  0  0  0  0  0  0  0  0  0  0  0
    1.1418    0.6735    0.0484 F   0  0  0  0  0  0  0  0  0  0  0  0
   -1.0806    0.7661   -0.0722 F   0  0  0  0  0  0  0  0  0  0  0  0
   -0.0781   -0.6631    0.9303 H   0  0  0  0  0  0  0  0  0  0  0  0
    0.0202   -0.6977   -0.9078 H   0  0  0  0  0  0  0  0  0  0  0  0
  1  2  1  0  0  0  0
  1  4  1  0  0  0  0
  3  1  1  0  0  0  0
  5  1  1  0  0  0  0
M  END
>  <Charge>
0.0

>  <InChI>
1/CH2F2/c2-1-3/h1H2

>  <Molecular Formula>
CH_{2}F_{2}

>  <Name>
DIFLUOROMETHANE

>  <SMILES>
C(F)F

>  <logK (DIMETHYLFORMAMIDE)>
1.24

>  <logK (N-METHYLPYRROLIDONE)>
1.24

>  <mean polarizability>
2.72

>  <dipole moment>
1.85737651392

$$$$
596
 OpenBabel08101817183D

  5  4  0  0  0  0  0  0  0  0999 V2000
    0.0039    0.0017    0.0627 C   0  0  0  0  0  0  0  0  0  0  0  0
    1.1158   -0.5555   -0.4642 F   0  0  0  0  0  0  0  0  0  0  0  0
   -0.1272    1.2505   -0.4350 F   0  0  0  0  0  0  0  0  0  0  0  0
   -1.0655   -0.7280   -0.3224 F   0  0  0  0  0  0  0  0  0  0  0  0
    0.0729    0.0315    1.1589 H   0  0  0  0  0  0  0  0  0  0  0  0
  1  5  1  0  0  0  0
  2  1  1  0  0  0  0
  3  1  1  0  0  0  0
  4  1  1  0  0  0  0
M  END
>  <Charge>
0.0

>  <InChI>
1/CHF3/c2-1(3)4/h1H

>  <Molecular Formula>
CHF_{3}

>  <Name>
FLUOROFORM

>  <SMILES>
C(F)(F)F

>  <logK (DIMETHYLFORMAMIDE)>
0.63

>  <logK (N-METHYLPYRROLIDONE)>
0.99

>  <mean polarizability>
2.9

>  <dipole moment>
1.54008093529

$$$$
597
 OpenBabel08101817183D

  5  4  0  0  0  0  0  0  0  0999 V2000
   -0.0071    0.0987    0.0710 C   0  0  0  0  0  0  0  0  0  0  0  0
   -0.0719    1.1939   -0.7305 F   0  0  0  0  0  0  0  0  0  0  0  0
    1.5253   -0.7541   -0.2168 Cl  0  0  0  0  0  0  0  0  0  0  0  0
   -1.4092   -0.9472   -0.2432 Cl  0  0  0  0  0  0  0  0  0  0  0  0
   -0.0370    0.4088    1.1196 H   0  0  0  0  0  0  0  0  0  0  0  0
  1  5  1  0  0  0  0
  2  1  1  0  0  0  0
  3  1  1  0  0  0  0
  4  1  1  0  0  0  0
M  END
>  <Charge>
0.0

>  <InChI>
1/CHCl2F/c2-1(3)4/h1H

>  <Molecular Formula>
CHCl_{2}F

>  <Name>
DICHLOROFLUOROMETHANE

>  <SMILES>
C(F)(Cl)Cl

>  <logK (DIMETHYLFORMAMIDE)>
0.99

>  <logK (N-METHYLPYRROLIDONE)>
0.98

>  <mean polarizability>
6.69

>  <dipole moment>
1.20200703503

$$$$
598
 OpenBabel08101817183D

  8  7  0  0  0  0  0  0  0  0999 V2000
   -0.7663   -0.1082    0.1594 C   0  0  0  0  0  0  0  0  0  0  0  0
    0.7484    0.0730   -0.1075 C   0  0  0  0  0  0  0  0  0  0  0  0
    1.3261   -1.1368   -0.2748 F   0  0  0  0  0  0  0  0  0  0  0  0
    1.3258    0.6769    0.9541 F   0  0  0  0  0  0  0  0  0  0  0  0
    0.9746    0.8157   -1.2037 F   0  0  0  0  0  0  0  0  0  0  0  0
   -1.3372   -0.7179   -0.9154 F   0  0  0  0  0  0  0  0  0  0  0  0
   -1.3375    1.1159    0.3274 F   0  0  0  0  0  0  0  0  0  0  0  0
   -0.9340   -0.7188    1.0603 H   0  0  0  0  0  0  0  0  0  0  0  0
  1  7  1  0  0  0  0
  1  8  1  0  0  0  0
  2  1  1  0  0  0  0
  2  4  1  0  0  0  0
  3  2  1  0  0  0  0
  5  2  1  0  0  0  0
  6  1  1  0  0  0  0
M  END
>  <Charge>
0.0

>  <InChI>
1/C2HF5/c3-1(4)2(5,6)7/h1H

>  <Molecular Formula>
C_{2}HF_{5}

>  <Name>
PENTAFLUOROETHANE

>  <SMILES>
C(C(F)(F)F)(F)F

>  <logK (DIMETHYLFORMAMIDE)>
1.13

>  <mean polarizability>
4.94

>  <dipole moment>
1.44878530674

$$$$
599
 OpenBabel08101817183D

  8  7  0  0  0  0  0  0  0  0999 V2000
   -0.7956    0.2040    0.0901 C   0  0  0  0  0  0  0  0  0  0  0  0
    0.6354   -0.2440   -0.0543 C   0  0  0  0  0  0  0  0  0  0  0  0
    1.1071   -0.7650    1.1133 F   0  0  0  0  0  0  0  0  0  0  0  0
    0.7511   -1.2225   -0.9958 F   0  0  0  0  0  0  0  0  0  0  0  0
    1.7270    1.1093   -0.5321 Cl  0  0  0  0  0  0  0  0  0  0  0  0
   -0.8659    0.9777    0.8610 H   0  0  0  0  0  0  0  0  0  0  0  0
   -1.1568    0.6035   -0.8627 H   0  0  0  0  0  0  0  0  0  0  0  0
   -1.4023   -0.6629    0.3806 H   0  0  0  0  0  0  0  0  0  0  0  0
  1  8  1  0  0  0  0
  1  6  1  0  0  0  0
  2  1  1  0  0  0  0
  2  3  1  0  0  0  0
  4  2  1  0  0  0  0
  5  2  1  0  0  0  0
  7  1  1  0  0  0  0
M  END
>  <Charge>
0.0

>  <InChI>
1/C2H3ClF2/c1-2(3,4)5/h1H3

>  <Molecular Formula>
C_{2}H_{3}ClF_{2}

>  <Name>
F 142B

>  <SMILES>
CC(F)(F)Cl

>  <logK (DIMETHYLFORMAMIDE)>
1.53

>  <logK (N-METHYLPYRROLIDONE)>
1.56

>  <mean polarizability>
6.59

>  <dipole moment>
2.19223252608

$$$$
600
 OpenBabel08101817183D

  8  7  0  0  1  0  0  0  0  0999 V2000
    0.7657   -0.1008   -0.0299 C   0  0  2  0  0  0  0  0  0  0  0  0
   -0.7774   -0.0060   -0.0018 C   0  0  0  0  0  0  0  0  0  0  0  0
   -1.2239    0.7274    1.0308 F   0  0  0  0  0  0  0  0  0  0  0  0
   -1.2904   -1.2540    0.1083 F   0  0  0  0  0  0  0  0  0  0  0  0
   -1.2335    0.5340   -1.1518 F   0  0  0  0  0  0  0  0  0  0  0  0
    1.1851   -0.7000    1.1258 F   0  0  0  0  0  0  0  0  0  0  0  0
    1.4956    1.5072   -0.1920 Cl  0  0  0  0  0  0  0  0  0  0  0  0
    1.0788   -0.7078   -0.8893 H   0  0  0  0  0  0  0  0  0  0  0  0
  1  8  1  6  0  0  0
  1  2  1  0  0  0  0
  1  6  1  0  0  0  0
  2  4  1  0  0  0  0
  2  3  1  0  0  0  0
  5  2  1  0  0  0  0
  7  1  1  0  0  0  0
M  END
>  <Charge>
0.0

>  <InChI>
1/C2HClF4/c3-1(4)2(5,6)7/h1H

>  <Molecular Formula>
C_{2}HClF_{4}

>  <Name>
1,1,1,2-TETRAFLUORO-2-CHLOROETHANE

>  <SMILES>
C(C(F)(F)F)(F)Cl

>  <logK (DIMETHYLFORMAMIDE)>
1.79

>  <logK (N-METHYLPYRROLIDONE)>
1.75

>  <mean polarizability>
6.8

>  <dipole moment>
1.34952797564

$$$$
601
 OpenBabel08101817183D

  8  7  0  0  0  0  0  0  0  0999 V2000
    0.7853   -0.0163    0.0690 C   0  0  0  0  0  0  0  0  0  0  0  0
   -0.7785   -0.1071   -0.0655 C   0  0  0  0  0  0  0  0  0  0  0  0
   -1.1086   -0.1746   -1.3710 F   0  0  0  0  0  0  0  0  0  0  0  0
   -1.1779   -1.2533    0.5298 F   0  0  0  0  0  0  0  0  0  0  0  0
   -1.5892    1.2700    0.6968 Cl  0  0  0  0  0  0  0  0  0  0  0  0
    1.3112   -1.1431   -0.4612 F   0  0  0  0  0  0  0  0  0  0  0  0
    1.1167    0.0278    1.3752 F   0  0  0  0  0  0  0  0  0  0  0  0
    1.4407    1.3965   -0.7731 Cl  0  0  0  0  0  0  0  0  0  0  0  0
  1  7  1  0  0  0  0
  2  1  1  0  0  0  0
  2  4  1  0  0  0  0
  2  5  1  0  0  0  0
  3  2  1  0  0  0  0
  6  1  1  0  0  0  0
  8  1  1  0  0  0  0
M  END
>  <Charge>
0.0

>  <InChI>
1/C2Cl2F4/c3-1(5,6)2(4,7)8

>  <Molecular Formula>
C_{2}Cl_{2}F_{4}

>  <Name>
1,2-DICHLOROTETRAFLUOROETHANE

>  <SMILES>
C(C(F)(F)Cl)(F)(F)Cl

>  <logK (DIMETHYLFORMAMIDE)>
1.17

>  <logK (N-METHYLPYRROLIDONE)>
1.09

>  <mean polarizability>
8.82

>  <dipole moment>
0.6739365998

$$$$
602
 OpenBabel08101817183D

  8  7  0  0  0  0  0  0  0  0999 V2000
    0.7970   -0.0242   -0.0630 C   0  0  0  0  0  0  0  0  0  0  0  0
   -0.7635   -0.0465    0.0812 C   0  0  0  0  0  0  0  0  0  0  0  0
   -1.2588   -0.9987   -0.7373 F   0  0  0  0  0  0  0  0  0  0  0  0
   -1.0745   -0.3738    1.3533 F   0  0  0  0  0  0  0  0  0  0  0  0
   -1.4674    1.5269   -0.3270 Cl  0  0  0  0  0  0  0  0  0  0  0  0
    1.2865   -1.2374    0.2563 F   0  0  0  0  0  0  0  0  0  0  0  0
    1.1482    0.2645   -1.3270 F   0  0  0  0  0  0  0  0  0  0  0  0
    1.3326    0.8892    0.7635 F   0  0  0  0  0  0  0  0  0  0  0  0
  1  2  1  0  0  0  0
  1  6  1  0  0  0  0
  1  8  1  0  0  0  0
  2  4  1  0  0  0  0
  3  2  1  0  0  0  0
  5  2  1  0  0  0  0
  7  1  1  0  0  0  0
M  END
>  <Charge>
0.0

>  <InChI>
1/C2ClF5/c3-1(4,5)2(6,7)8

>  <Molecular Formula>
C_{2}ClF_{5}

>  <Name>
FLUOROCARBON 115

>  <SMILES>
C(C(F)(F)Cl)(F)(F)F

>  <logK (DIMETHYLFORMAMIDE)>
1.13

>  <logK (N-METHYLPYRROLIDONE)>
-0.05

>  <mean polarizability>
6.97

>  <dipole moment>
0.466700708784

$$$$
603
 OpenBabel08101817183D

  6  5  0  0  0  0  0  0  0  0999 V2000
   -0.6275   -0.0338    0.2485 C   0  0  0  0  0  0  0  0  0  0  0  0
    0.6366   -0.0999   -0.1663 C   0  0  0  0  0  0  0  0  0  0  0  0
    1.4612   -1.0873    0.1721 F   0  0  0  0  0  0  0  0  0  0  0  0
    1.2414    0.7778   -0.9489 F   0  0  0  0  0  0  0  0  0  0  0  0
   -1.6784    1.2498   -0.1981 Cl  0  0  0  0  0  0  0  0  0  0  0  0
   -1.0334   -0.8067    0.8927 H   0  0  0  0  0  0  0  0  0  0  0  0
  1  6  1  0  0  0  0
  2  3  1  0  0  0  0
  2  1  2  0  0  0  0
  4  2  1  0  0  0  0
  5  1  1  0  0  0  0
M  END
>  <Charge>
0.0

>  <InChI>
1/C2HClF2/c3-1-2(4)5/h1H

>  <Molecular Formula>
C_{2}HClF_{2}

>  <Name>
2-CHLORO-1,1-DIFLUOROETHENE

>  <SMILES>
C(=C(F)F)Cl

>  <logK (DIMETHYLFORMAMIDE)>
1.46

>  <logK (N-METHYLPYRROLIDONE)>
1.66

>  <mean polarizability>
6.28

>  <dipole moment>
0.97505307872

$$$$
604
 OpenBabel08101817183D

 24 23  0  0  0  0  0  0  0  0999 V2000
    2.1423    1.3073   -0.0763 C   0  0  0  0  0  0  0  0  0  0  0  0
    1.3340    0.0249   -0.2630 C   0  0  0  0  0  0  0  0  0  0  0  0
    2.1906   -1.2244   -0.0677 C   0  0  0  0  0  0  0  0  0  0  0  0
    0.2643    0.0078    0.6997 O   0  0  0  0  0  0  0  0  0  0  0  0
   -1.0997   -0.0204    0.2156 C   0  0  0  0  0  0  0  0  0  0  0  0
   -1.3726   -1.2933   -0.5993 C   0  0  0  0  0  0  0  0  0  0  0  0
   -1.9341   -0.0318    1.4975 C   0  0  0  0  0  0  0  0  0  0  0  0
   -1.4215    1.2352   -0.6085 C   0  0  0  0  0  0  0  0  0  0  0  0
    2.9904    1.3428   -0.7745 H   0  0  0  0  0  0  0  0  0  0  0  0
    2.5365    1.3563    0.9482 H   0  0  0  0  0  0  0  0  0  0  0  0
    1.5172    2.1932   -0.2441 H   0  0  0  0  0  0  0  0  0  0  0  0
    0.9189    0.0135   -1.2845 H   0  0  0  0  0  0  0  0  0  0  0  0
    3.0396   -1.2323   -0.7658 H   0  0  0  0  0  0  0  0  0  0  0  0
    1.5998   -2.1347   -0.2295 H   0  0  0  0  0  0  0  0  0  0  0  0
    2.5863   -1.2515    0.9570 H   0  0  0  0  0  0  0  0  0  0  0  0
   -2.4292   -1.3383   -0.8969 H   0  0  0  0  0  0  0  0  0  0  0  0
   -0.7712   -1.3279   -1.5180 H   0  0  0  0  0  0  0  0  0  0  0  0
   -1.1445   -2.1846   -0.0003 H   0  0  0  0  0  0  0  0  0  0  0  0
   -1.6888   -0.9146    2.1017 H   0  0  0  0  0  0  0  0  0  0  0  0
   -3.0065   -0.0533    1.2629 H   0  0  0  0  0  0  0  0  0  0  0  0
   -1.7230    0.8640    2.0954 H   0  0  0  0  0  0  0  0  0  0  0  0
   -1.2280    2.1389   -0.0159 H   0  0  0  0  0  0  0  0  0  0  0  0
   -2.4790    1.2372   -0.9061 H   0  0  0  0  0  0  0  0  0  0  0  0
   -0.8218    1.2863   -1.5274 H   0  0  0  0  0  0  0  0  0  0  0  0
  1 10  1  0  0  0  0
  2  1  1  0  0  0  0
  2  3  1  0  0  0  0
  2  4  1  0  0  0  0
  3 15  1  0  0  0  0
  5  4  1  0  0  0  0
  5  7  1  0  0  0  0
  6 18  1  0  0  0  0
  6  5  1  0  0  0  0
  7 21  1  0  0  0  0
  7 19  1  0  0  0  0
  8 22  1  0  0  0  0
  8  5  1  0  0  0  0
  9  1  1  0  0  0  0
 11  1  1  0  0  0  0
 12  2  1  0  0  0  0
 13  3  1  0  0  0  0
 14  3  1  0  0  0  0
 16  6  1  0  0  0  0
 17  6  1  0  0  0  0
 20  7  1  0  0  0  0
 23  8  1  0  0  0  0
 24  8  1  0  0  0  0
M  END
>  <Charge>
0.0

>  <InChI>
1/C7H16O/c1-6(2)8-7(3,4)5/h6H,1-5H3

>  <Molecular Formula>
C_{7}H_{16}O

>  <Name>
ISOPROPYL T-BUTYL ETHER

>  <SMILES>
CC(C)OC(C)(C)C

>  <logK (1-METHYL-2-PIPERIDINONE)>
2.68

>  <logK (N,N-DIBUTYLFORMAMID)>
2.84

>  <logK (N,N-DIMETHYLACETAMIDE)>
2.75

>  <logK (N-METHYLACETAMIDE)>
2.65

>  <logK (PROPYLENE CARBONATE)>
2.34

>  <mean polarizability>
14.5

>  <dipole moment>
1.19907762681

$$$$
605
 OpenBabel08101817183D

  3  2  0  0  0  0  0  0  0  0999 V2000
   -0.1330    0.3869    0.0000 C   0  0  0  0  0  0  0  0  0  0  0  0
   -1.3001    0.4302   -0.0000 O   0  0  0  0  0  0  0  0  0  0  0  0
    1.4330    0.3287   -0.0000 S   0  0  0  0  0  0  0  0  0  0  0  0
  1  2  1  0  0  0  0
  1  3  1  0  0  0  0
M  RAD  3   1   3   2   2   3   2
M  END
>  <Charge>
0.0

>  <InChI>
1/COS/c2-1-3

>  <Molecular Formula>
COS

>  <Name>
CARBONYL SULFIDE

>  <SMILES>
C(=O)=S

>  <logK (N-METHYLPYRROLIDONE)>
1.03

>  <logK (PROPYLENE CARBONATE)>
0.84

>  <logK (TRIBUTYL PHOSPHATE)>
1.1

>  <mean polarizability>
4.91

>  <dipole moment>
0.810151215112

$$$$
606
 OpenBabel08101817183D

 23 22  0  0  0  0  0  0  0  0999 V2000
    2.7946   -0.7827   -0.9406 C   0  0  0  0  0  0  0  0  0  0  0  0
    1.5680   -0.6346   -0.0383 C   0  0  0  0  0  0  0  0  0  0  0  0
    0.4105    0.0729   -0.7478 C   0  0  0  0  0  0  0  0  0  0  0  0
   -0.8962    0.2881    0.0551 C   0  0  0  0  0  0  0  0  0  0  0  0
   -0.6405    1.1615    1.2948 C   0  0  0  0  0  0  0  0  0  0  0  0
   -1.8986    1.0096   -0.8614 C   0  0  0  0  0  0  0  0  0  0  0  0
   -1.5009   -1.0576    0.4891 C   0  0  0  0  0  0  0  0  0  0  0  0
    3.6192   -1.2907   -0.4222 H   0  0  0  0  0  0  0  0  0  0  0  0
    2.5569   -1.3669   -1.8416 H   0  0  0  0  0  0  0  0  0  0  0  0
    3.1640    0.1983   -1.2733 H   0  0  0  0  0  0  0  0  0  0  0  0
    1.8517   -0.0767    0.8674 H   0  0  0  0  0  0  0  0  0  0  0  0
    1.2481   -1.6314    0.3022 H   0  0  0  0  0  0  0  0  0  0  0  0
    0.1595   -0.4947   -1.6612 H   0  0  0  0  0  0  0  0  0  0  0  0
    0.7630    1.0597   -1.0961 H   0  0  0  0  0  0  0  0  0  0  0  0
   -0.1903    2.1251    1.0139 H   0  0  0  0  0  0  0  0  0  0  0  0
   -1.5832    1.3734    1.8201 H   0  0  0  0  0  0  0  0  0  0  0  0
    0.0321    0.6701    2.0108 H   0  0  0  0  0  0  0  0  0  0  0  0
   -2.8506    1.1903   -0.3415 H   0  0  0  0  0  0  0  0  0  0  0  0
   -1.5045    1.9823   -1.1905 H   0  0  0  0  0  0  0  0  0  0  0  0
   -2.1133    0.4128   -1.7600 H   0  0  0  0  0  0  0  0  0  0  0  0
   -2.4661   -0.9036    0.9932 H   0  0  0  0  0  0  0  0  0  0  0  0
   -1.6772   -1.7103   -0.3787 H   0  0  0  0  0  0  0  0  0  0  0  0
   -0.8461   -1.5947    1.1886 H   0  0  0  0  0  0  0  0  0  0  0  0
  1  8  1  0  0  0  0
  1  2  1  0  0  0  0
  2 12  1  0  0  0  0
  2 11  1  0  0  0  0
  3  2  1  0  0  0  0
  3  4  1  0  0  0  0
  4  7  1  0  0  0  0
  4  5  1  0  0  0  0
  5 16  1  0  0  0  0
  5 17  1  0  0  0  0
  6 18  1  0  0  0  0
  6  4  1  0  0  0  0
  7 21  1  0  0  0  0
  7 23  1  0  0  0  0
  9  1  1  0  0  0  0
 10  1  1  0  0  0  0
 13  3  1  0  0  0  0
 14  3  1  0  0  0  0
 15  5  1  0  0  0  0
 19  6  1  0  0  0  0
 20  6  1  0  0  0  0
 22  7  1  0  0  0  0
M  END
>  <Charge>
0.0

>  <InChI>
1/C7H16/c1-5-6-7(2,3)4/h5-6H2,1-4H3

>  <Molecular Formula>
C_{7}H_{16}

>  <Name>
2,2-DIMETHYLPENTANE

>  <SMILES>
CCCC(C)(C)C

>  <logK (1-HEXADECENE)>
2.7085517392

>  <logK (N-METHYLPYRROLIDONE)>
1.95

>  <mean polarizability>
13.7

>  <dipole moment>
0.0819538040582

$$$$
607
 OpenBabel08101817183D

 23 22  0  0  0  0  0  0  0  0999 V2000
    1.7154    0.7259   -0.8681 C   0  0  0  0  0  0  0  0  0  0  0  0
    0.9071    0.1587    0.3076 C   0  0  0  0  0  0  0  0  0  0  0  0
    1.5097   -1.1896    0.7273 C   0  0  0  0  0  0  0  0  0  0  0  0
   -0.6379    0.1123    0.0525 C   0  0  0  0  0  0  0  0  0  0  0  0
   -1.3580   -0.3747    1.3238 C   0  0  0  0  0  0  0  0  0  0  0  0
   -1.0050   -0.8201   -1.1149 C   0  0  0  0  0  0  0  0  0  0  0  0
   -1.1537    1.5291   -0.2610 C   0  0  0  0  0  0  0  0  0  0  0  0
    1.3927    1.7339   -1.1565 H   0  0  0  0  0  0  0  0  0  0  0  0
    2.7789    0.7880   -0.5983 H   0  0  0  0  0  0  0  0  0  0  0  0
    1.6448    0.0804   -1.7555 H   0  0  0  0  0  0  0  0  0  0  0  0
    1.0385    0.8528    1.1579 H   0  0  0  0  0  0  0  0  0  0  0  0
    1.0341   -1.6049    1.6242 H   0  0  0  0  0  0  0  0  0  0  0  0
    1.4283   -1.9360   -0.0762 H   0  0  0  0  0  0  0  0  0  0  0  0
    2.5793   -1.0708    0.9498 H   0  0  0  0  0  0  0  0  0  0  0  0
   -1.0837    0.2397    2.1945 H   0  0  0  0  0  0  0  0  0  0  0  0
   -1.1227   -1.4206    1.5595 H   0  0  0  0  0  0  0  0  0  0  0  0
   -2.4478   -0.3048    1.1961 H   0  0  0  0  0  0  0  0  0  0  0  0
   -0.5471   -0.4943   -2.0588 H   0  0  0  0  0  0  0  0  0  0  0  0
   -0.6933   -1.8563   -0.9251 H   0  0  0  0  0  0  0  0  0  0  0  0
   -2.0943   -0.8279   -1.2647 H   0  0  0  0  0  0  0  0  0  0  0  0
   -2.2509    1.5295   -0.3310 H   0  0  0  0  0  0  0  0  0  0  0  0
   -0.8692    2.2385    0.5307 H   0  0  0  0  0  0  0  0  0  0  0  0
   -0.7650    1.9111   -1.2138 H   0  0  0  0  0  0  0  0  0  0  0  0
  1  9  1  0  0  0  0
  1  2  1  0  0  0  0
  2  3  1  0  0  0  0
  2 11  1  0  0  0  0
  3 14  1  0  0  0  0
  3 12  1  0  0  0  0
  4  2  1  0  0  0  0
  4  5  1  0  0  0  0
  5 16  1  0  0  0  0
  5 15  1  0  0  0  0
  6 19  1  0  0  0  0
  6  4  1  0  0  0  0
  7  4  1  0  0  0  0
  7 22  1  0  0  0  0
  8  1  1  0  0  0  0
 10  1  1  0  0  0  0
 13  3  1  0  0  0  0
 17  5  1  0  0  0  0
 18  6  1  0  0  0  0
 20  6  1  0  0  0  0
 21  7  1  0  0  0  0
 23  7  1  0  0  0  0
M  END
>  <Charge>
0.0

>  <InChI>
1/C7H16/c1-6(2)7(3,4)5/h6H,1-5H3

>  <Molecular Formula>
C_{7}H_{16}

>  <Name>
2,2,3-TRIMETHYLBUTANE

>  <SMILES>
CC(C)C(C)(C)C

>  <logK (1-HEXADECENE)>
2.75872397075

>  <logK (N-METHYLPYRROLIDONE)>
2.04

>  <mean polarizability>
13.51

>  <dipole moment>
0.0830035871145

$$$$
608
 OpenBabel08101817183D

 27 27  0  0  0  0  0  0  0  0999 V2000
   -3.2755   -0.3552   -0.0746 C   0  0  0  0  0  0  0  0  0  0  0  0
   -2.1910   -0.0990   -1.1230 C   0  0  0  0  0  0  0  0  0  0  0  0
   -0.9993    0.7299   -0.6213 C   0  0  0  0  0  0  0  0  0  0  0  0
   -0.2061    0.1328    0.5587 C   0  0  0  0  0  0  0  0  0  0  0  0
    0.4264   -1.2403    0.2516 C   0  0  0  0  0  0  0  0  0  0  0  0
    1.6232   -1.1500   -0.7042 C   0  0  0  0  0  0  0  0  0  0  0  0
    2.6865   -0.1818   -0.1732 C   0  0  0  0  0  0  0  0  0  0  0  0
    2.0870    1.2006    0.1069 C   0  0  0  0  0  0  0  0  0  0  0  0
    0.8852    1.1039    1.0563 C   0  0  0  0  0  0  0  0  0  0  0  0
   -2.9092   -0.9760    0.7545 H   0  0  0  0  0  0  0  0  0  0  0  0
   -4.1372   -0.8750   -0.5152 H   0  0  0  0  0  0  0  0  0  0  0  0
   -3.6414    0.5886    0.3561 H   0  0  0  0  0  0  0  0  0  0  0  0
   -1.8363   -1.0608   -1.5262 H   0  0  0  0  0  0  0  0  0  0  0  0
   -2.6383    0.4312   -1.9787 H   0  0  0  0  0  0  0  0  0  0  0  0
   -0.3243    0.9181   -1.4706 H   0  0  0  0  0  0  0  0  0  0  0  0
   -1.3694    1.7223   -0.3097 H   0  0  0  0  0  0  0  0  0  0  0  0
   -0.9170   -0.0078    1.3898 H   0  0  0  0  0  0  0  0  0  0  0  0
    0.7707   -1.6821    1.2024 H   0  0  0  0  0  0  0  0  0  0  0  0
   -0.3297   -1.9332   -0.1475 H   0  0  0  0  0  0  0  0  0  0  0  0
    1.2873   -0.8119   -1.6986 H   0  0  0  0  0  0  0  0  0  0  0  0
    2.0573   -2.1503   -0.8527 H   0  0  0  0  0  0  0  0  0  0  0  0
    3.1067   -0.5886    0.7632 H   0  0  0  0  0  0  0  0  0  0  0  0
    3.5242   -0.1022   -0.8823 H   0  0  0  0  0  0  0  0  0  0  0  0
    2.8489    1.8681    0.5370 H   0  0  0  0  0  0  0  0  0  0  0  0
    1.7787    1.6629   -0.8451 H   0  0  0  0  0  0  0  0  0  0  0  0
    1.2444    0.7546    2.0395 H   0  0  0  0  0  0  0  0  0  0  0  0
    0.4481    2.1012    1.2227 H   0  0  0  0  0  0  0  0  0  0  0  0
  1 12  1  0  0  0  0
  1 10  1  0  0  0  0
  2  3  1  0  0  0  0
  2  1  1  0  0  0  0
  3 16  1  0  0  0  0
  3  4  1  0  0  0  0
  4  9  1  0  0  0  0
  4 17  1  0  0  0  0
  5  4  1  0  0  0  0
  5 18  1  0  0  0  0
  6  7  1  0  0  0  0
  6  5  1  0  0  0  0
  7  8  1  0  0  0  0
  7 22  1  0  0  0  0
  8 24  1  0  0  0  0
  8  9  1  0  0  0  0
  9 27  1  0  0  0  0
  9 26  1  0  0  0  0
 11  1  1  0  0  0  0
 13  2  1  0  0  0  0
 14  2  1  0  0  0  0
 15  3  1  0  0  0  0
 19  5  1  0  0  0  0
 20  6  1  0  0  0  0
 21  6  1  0  0  0  0
 23  7  1  0  0  0  0
 25  8  1  0  0  0  0
M  END
>  <Charge>
0.0

>  <InChI>
1/C9H18/c1-2-6-9-7-4-3-5-8-9/h9H,2-8H2,1H3

>  <Molecular Formula>
C_{9}H_{18}

>  <Name>
PROPYLCYCLOHEXANE

>  <SMILES>
CCCC1CCCCC1

>  <logK (FORMAMIDE)>
1.4

>  <logK (N-METHYLPYRROLIDONE)>
3.35

>  <logK (TRIBUTYL PHOSPHATE)>
3.52

>  <dipole moment>
0.0482554462684

>  <mean polarizability>
16.34

$$$$
609
 OpenBabel08101817183D

 30 30  0  0  0  0  0  0  0  0999 V2000
    4.1915    0.1734   -0.0823 C   0  0  0  0  0  0  0  0  0  0  0  0
    2.7911    0.0786    0.5236 C   0  0  0  0  0  0  0  0  0  0  0  0
    1.8892   -0.9223   -0.2050 C   0  0  0  0  0  0  0  0  0  0  0  0
    0.5168   -1.1370    0.4484 C   0  0  0  0  0  0  0  0  0  0  0  0
   -0.4092    0.0902    0.4937 C   0  0  0  0  0  0  0  0  0  0  0  0
   -0.7076    0.6392   -0.9213 C   0  0  0  0  0  0  0  0  0  0  0  0
   -2.0155    1.4347   -0.9501 C   0  0  0  0  0  0  0  0  0  0  0  0
   -3.2243    0.5202   -0.6561 C   0  0  0  0  0  0  0  0  0  0  0  0
   -2.8450   -0.6467    0.2815 C   0  0  0  0  0  0  0  0  0  0  0  0
   -1.7293   -0.2322    1.2445 C   0  0  0  0  0  0  0  0  0  0  0  0
    4.8166    0.8988    0.4565 H   0  0  0  0  0  0  0  0  0  0  0  0
    4.1496    0.4878   -1.1354 H   0  0  0  0  0  0  0  0  0  0  0  0
    4.7049   -0.7987   -0.0490 H   0  0  0  0  0  0  0  0  0  0  0  0
    2.3250    1.0766    0.5171 H   0  0  0  0  0  0  0  0  0  0  0  0
    2.8680   -0.2128    1.5845 H   0  0  0  0  0  0  0  0  0  0  0  0
    2.4083   -1.8943   -0.2505 H   0  0  0  0  0  0  0  0  0  0  0  0
    1.7640   -0.6036   -1.2531 H   0  0  0  0  0  0  0  0  0  0  0  0
    0.6704   -1.4997    1.4791 H   0  0  0  0  0  0  0  0  0  0  0  0
   -0.0077   -1.9489   -0.0851 H   0  0  0  0  0  0  0  0  0  0  0  0
    0.1040    0.8847    1.0606 H   0  0  0  0  0  0  0  0  0  0  0  0
    0.1300    1.2582   -1.2735 H   0  0  0  0  0  0  0  0  0  0  0  0
   -0.7839   -0.2016   -1.6330 H   0  0  0  0  0  0  0  0  0  0  0  0
   -1.9590    2.2378   -0.1975 H   0  0  0  0  0  0  0  0  0  0  0  0
   -2.1457    1.9366   -1.9196 H   0  0  0  0  0  0  0  0  0  0  0  0
   -3.6252    0.1171   -1.5985 H   0  0  0  0  0  0  0  0  0  0  0  0
   -4.0343    1.1142   -0.2064 H   0  0  0  0  0  0  0  0  0  0  0  0
   -3.7287   -0.9924    0.8367 H   0  0  0  0  0  0  0  0  0  0  0  0
   -2.5054   -1.5102   -0.3125 H   0  0  0  0  0  0  0  0  0  0  0  0
   -2.0622    0.6519    1.8117 H   0  0  0  0  0  0  0  0  0  0  0  0
   -1.5465   -1.0202    1.9909 H   0  0  0  0  0  0  0  0  0  0  0  0
  1 13  1  0  0  0  0
  1 11  1  0  0  0  0
  1  2  1  0  0  0  0
  2 15  1  0  0  0  0
  3  4  1  0  0  0  0
  3  2  1  0  0  0  0
  4  5  1  0  0  0  0
  4 18  1  0  0  0  0
  5 20  1  0  0  0  0
  5 10  1  0  0  0  0
  6  5  1  0  0  0  0
  7  6  1  0  0  0  0
  7  8  1  0  0  0  0
  7 23  1  0  0  0  0
  8 26  1  0  0  0  0
  8  9  1  0  0  0  0
  9 27  1  0  0  0  0
  9 10  1  0  0  0  0
 10 29  1  0  0  0  0
 10 30  1  0  0  0  0
 12  1  1  0  0  0  0
 14  2  1  0  0  0  0
 16  3  1  0  0  0  0
 17  3  1  0  0  0  0
 19  4  1  0  0  0  0
 21  6  1  0  0  0  0
 22  6  1  0  0  0  0
 24  7  1  0  0  0  0
 25  8  1  0  0  0  0
 28  9  1  0  0  0  0
M  END
>  <Charge>
0.0

>  <InChI>
1/C10H20/c1-2-3-7-10-8-5-4-6-9-10/h10H,2-9H2,1H3

>  <Molecular Formula>
C_{10}H_{20}

>  <Name>
BUTYLCYCLOHEXANE

>  <SMILES>
CCCCC1CCCCC1

>  <logK (N-METHYLPYRROLIDONE)>
3.73

>  <dipole moment>
0.0923079830489

>  <mean polarizability>
18.35

$$$$
610
 OpenBabel08101817183D

 16 15  0  0  0  0  0  0  0  0999 V2000
   -2.8028   -0.3805    0.2106 C   0  0  0  0  0  0  0  0  0  0  0  0
   -1.5605    0.2949   -0.3720 C   0  0  0  0  0  0  0  0  0  0  0  0
   -0.2747   -0.1582    0.2678 C   0  0  0  0  0  0  0  0  0  0  0  0
    0.9565    0.2784   -0.0604 C   0  0  0  0  0  0  0  0  0  0  0  0
    2.1767   -0.1763    0.5734 C   0  0  0  0  0  0  0  0  0  0  0  0
    3.4115    0.2515    0.2555 C   0  0  0  0  0  0  0  0  0  0  0  0
   -2.7567   -1.4713    0.0842 H   0  0  0  0  0  0  0  0  0  0  0  0
   -3.7181   -0.0254   -0.2803 H   0  0  0  0  0  0  0  0  0  0  0  0
   -2.8981   -0.1744    1.2859 H   0  0  0  0  0  0  0  0  0  0  0  0
   -1.5145    0.1073   -1.4577 H   0  0  0  0  0  0  0  0  0  0  0  0
   -1.6541    1.3888   -0.2697 H   0  0  0  0  0  0  0  0  0  0  0  0
   -0.3604   -0.9053    1.0654 H   0  0  0  0  0  0  0  0  0  0  0  0
    1.0676    1.0253   -0.8550 H   0  0  0  0  0  0  0  0  0  0  0  0
    2.0606   -0.9224    1.3663 H   0  0  0  0  0  0  0  0  0  0  0  0
    4.2955   -0.1262    0.7668 H   0  0  0  0  0  0  0  0  0  0  0  0
    3.5715    0.9938   -0.5283 H   0  0  0  0  0  0  0  0  0  0  0  0
  1  9  1  0  0  0  0
  2 11  1  0  0  0  0
  2  1  1  0  0  0  0
  2  3  1  0  0  0  0
  3 12  1  0  0  0  0
  4  3  2  0  0  0  0
  4  5  1  0  0  0  0
  5 14  1  0  0  0  0
  6  5  2  0  0  0  0
  6 15  1  0  0  0  0
  7  1  1  0  0  0  0
  8  1  1  0  0  0  0
 10  2  1  0  0  0  0
 13  4  1  0  0  0  0
 16  6  1  0  0  0  0
M  END
>  <Charge>
0.0

>  <InChI>
1/C6H10/c1-3-5-6-4-2/h3,5-6H,1,4H2,2H3/b6-5+

>  <Molecular Formula>
C_{6}H_{10}

>  <Name>
HEXADIENE

>  <SMILES>
CC/C=C/C=C

>  <logK (1-HEXADECENE)>
2.667

>  <logK (N-METHYLPYRROLIDONE)>
2.69

>  <mean polarizability>
12.77

>  <dipole moment>
0.775348478843

$$$$
611
 OpenBabel08101817183D

 14 14  0  0  0  0  0  0  0  0999 V2000
   -1.1767   -0.4457   -0.3706 C   0  0  0  0  0  0  0  0  0  0  0  0
   -0.8866    0.9422    0.2165 C   0  0  0  0  0  0  0  0  0  0  0  0
    0.5589    1.3300    0.0401 C   0  0  0  0  0  0  0  0  0  0  0  0
    1.5170    0.3833    0.0342 C   0  0  0  0  0  0  0  0  0  0  0  0
    1.1673   -1.0292    0.1663 C   0  0  0  0  0  0  0  0  0  0  0  0
   -0.1040   -1.4395   -0.0061 C   0  0  0  0  0  0  0  0  0  0  0  0
   -1.2278   -0.3788   -1.4753 H   0  0  0  0  0  0  0  0  0  0  0  0
   -2.1654   -0.7971   -0.0443 H   0  0  0  0  0  0  0  0  0  0  0  0
   -1.1171    0.9431    1.3001 H   0  0  0  0  0  0  0  0  0  0  0  0
   -1.5524    1.6917   -0.2334 H   0  0  0  0  0  0  0  0  0  0  0  0
    0.8195    2.3881   -0.0153 H   0  0  0  0  0  0  0  0  0  0  0  0
    2.5697    0.6592   -0.0434 H   0  0  0  0  0  0  0  0  0  0  0  0
    1.9585   -1.7488    0.3816 H   0  0  0  0  0  0  0  0  0  0  0  0
   -0.3611   -2.4984    0.0493 H   0  0  0  0  0  0  0  0  0  0  0  0
  1  8  1  0  0  0  0
  1  6  1  0  0  0  0
  1  2  1  0  0  0  0
  2  9  1  0  0  0  0
  3  2  1  0  0  0  0
  4  3  2  0  0  0  0
  4  5  1  0  0  0  0
  5 13  1  0  0  0  0
  6 14  1  0  0  0  0
  6  5  2  0  0  0  0
  7  1  1  0  0  0  0
 10  2  1  0  0  0  0
 11  3  1  0  0  0  0
 12  4  1  0  0  0  0
M  END
>  <Charge>
0.0

>  <InChI>
1/C6H8/c1-2-4-6-5-3-1/h1-4H,5-6H2

>  <Molecular Formula>
C_{6}H_{8}

>  <Name>
CYCLOHEXADIENE

>  <SMILES>
C1CC=CC=C1

>  <logK (N-METHYLPYRROLIDONE)>
2.76

>  <mean polarizability>
10.54

>  <dipole moment>
0.52193697686

$$$$
612
 OpenBabel08101817183D

 11 10  0  0  0  0  0  0  0  0999 V2000
    0.0707   -0.3173    0.5037 C   0  0  0  0  0  0  0  0  0  0  0  0
   -1.3072   -0.1403   -0.1737 C   0  0  0  0  0  0  0  0  0  0  0  0
   -1.3070   -0.7017   -1.4027 F   0  0  0  0  0  0  0  0  0  0  0  0
   -2.2437   -0.7672    0.5736 F   0  0  0  0  0  0  0  0  0  0  0  0
   -1.6631    1.1514   -0.2908 F   0  0  0  0  0  0  0  0  0  0  0  0
    1.2593    0.3497   -0.2252 C   0  0  0  0  0  0  0  0  0  0  0  0
    1.4181   -0.1813   -1.4575 F   0  0  0  0  0  0  0  0  0  0  0  0
    2.3890    0.1173    0.4805 F   0  0  0  0  0  0  0  0  0  0  0  0
    1.1096    1.6808   -0.3464 F   0  0  0  0  0  0  0  0  0  0  0  0
   -0.0035    0.2053    1.7763 F   0  0  0  0  0  0  0  0  0  0  0  0
    0.2780   -1.3968    0.5623 H   0  0  0  0  0  0  0  0  0  0  0  0
  1 11  1  0  0  0  0
  1 10  1  0  0  0  0
  2  1  1  0  0  0  0
  2  4  1  0  0  0  0
  3  2  1  0  0  0  0
  5  2  1  0  0  0  0
  6  8  1  0  0  0  0
  6  1  1  0  0  0  0
  7  6  1  0  0  0  0
  9  6  1  0  0  0  0
M  END
>  <Charge>
0.0

>  <InChI>
1/C3HF7/c4-1(2(5,6)7)3(8,9)10/h1H

>  <Molecular Formula>
C_{3}HF_{7}

>  <Name>
HEPTAFLUOROPROPANE

>  <SMILES>
C(C(F)(F)F)(C(F)(F)F)F

>  <logK (N-METHYLPYRROLIDONE)>
0.44

>  <mean polarizability>
6.99

>  <dipole moment>
1.32345739338

$$$$
613
 OpenBabel08101817183D

 11 10  0  0  0  0  0  0  0  0999 V2000
   -1.3762   -0.1848    0.4960 C   0  0  0  0  0  0  0  0  0  0  0  0
   -0.4464    0.7879   -0.1745 C   0  0  0  0  0  0  0  0  0  0  0  0
    0.8427    0.5821   -0.5154 C   0  0  0  0  0  0  0  0  0  0  0  0
    1.5718   -0.6656   -0.2790 C   0  0  0  0  0  0  0  0  0  0  0  0
    2.7406   -0.8404   -0.5925 O   0  0  0  0  0  0  0  0  0  0  0  0
   -0.9984   -0.4995    1.4790 H   0  0  0  0  0  0  0  0  0  0  0  0
   -2.3653    0.2604    0.6483 H   0  0  0  0  0  0  0  0  0  0  0  0
   -1.5109   -1.0982   -0.1003 H   0  0  0  0  0  0  0  0  0  0  0  0
   -0.8692    1.7686   -0.4087 H   0  0  0  0  0  0  0  0  0  0  0  0
    1.4151    1.3745   -1.0017 H   0  0  0  0  0  0  0  0  0  0  0  0
    0.9964   -1.4849    0.2185 H   0  0  0  0  0  0  0  0  0  0  0  0
  1  7  1  0  0  0  0
  1  6  1  0  0  0  0
  2  1  1  0  0  0  0
  3  4  1  0  0  0  0
  3  2  2  0  0  0  0
  4 11  1  0  0  0  0
  5  4  2  0  0  0  0
  8  1  1  0  0  0  0
  9  2  1  0  0  0  0
 10  3  1  0  0  0  0
M  END
>  <Charge>
0.0

>  <InChI>
1/C4H6O/c1-2-3-4-5/h2-4H,1H3/b3-2-

>  <Molecular Formula>
C_{4}H_{6}O

>  <Name>
(2Z)-2-BUTENAL

>  <SMILES>
C/C=C\C=O

>  <logK (N-METHYLPYRROLIDONE)>
3.66

>  <mean polarizability>
8.4

>  <dipole moment>
3.94211195911

$$$$
614
 OpenBabel08101817183D

 12 11  0  0  0  0  0  0  0  0999 V2000
   -2.1398    0.0047   -0.5561 C   0  0  0  0  0  0  0  0  0  0  0  0
   -0.7762    0.1736    0.0631 C   0  0  0  0  0  0  0  0  0  0  0  0
   -0.5610    0.6609    1.1474 O   0  0  0  0  0  0  0  0  0  0  0  0
    0.1928   -0.3180   -0.7867 O   0  0  0  0  0  0  0  0  0  0  0  0
    1.5468   -0.3184   -0.4800 C   0  0  0  0  0  0  0  0  0  0  0  0
    2.1816    0.1060    0.6136 C   0  0  0  0  0  0  0  0  0  0  0  0
   -2.6664    0.9656   -0.5179 H   0  0  0  0  0  0  0  0  0  0  0  0
   -2.7148   -0.7045    0.0539 H   0  0  0  0  0  0  0  0  0  0  0  0
   -2.0900   -0.3583   -1.5861 H   0  0  0  0  0  0  0  0  0  0  0  0
    2.0772   -0.7522   -1.3272 H   0  0  0  0  0  0  0  0  0  0  0  0
    1.6844    0.5420    1.4708 H   0  0  0  0  0  0  0  0  0  0  0  0
    3.2652   -0.0015    0.6249 H   0  0  0  0  0  0  0  0  0  0  0  0
  1  7  1  0  0  0  0
  1  8  1  0  0  0  0
  1  2  1  0  0  0  0
  2  3  2  0  0  0  0
  4  5  1  0  0  0  0
  4  2  1  0  0  0  0
  5  6  2  0  0  0  0
  6 12  1  0  0  0  0
  6 11  1  0  0  0  0
  9  1  1  0  0  0  0
 10  5  1  0  0  0  0
M  END
>  <Charge>
0.0

>  <InChI>
1/C4H6O2/c1-3-6-4(2)5/h3H,1H2,2H3

>  <Molecular Formula>
C_{4}H_{6}O_{2}

>  <Name>
VINYL ACETATE

>  <SMILES>
CC(=O)OC=C

>  <logK (4-FORMYLMORPHOLINE)>
2.92

>  <logK (EPSILON-CAPROLACTONE)>
2.95

>  <logK (N,N-DIETHYLACETAMIDE)>
3.08

>  <logK (N-ETHYLACETAMIDE)>
2.81

>  <logK (N-ETHYLFORMAMIDE)>
2.87

>  <logK (N-METHYLPYRROLIDONE)>
3.05

>  <mean polarizability>
8.88

>  <dipole moment>
1.8376331492

$$$$
615
 OpenBabel08101817183D

 16 16  0  0  0  0  0  0  0  0999 V2000
    2.1354    0.2672   -0.1411 C   0  0  0  0  0  0  0  0  0  0  0  0
    0.6961    0.1285   -0.0446 N   0  0  0  0  0  0  0  0  0  0  0  0
    0.0205   -1.1572   -0.0368 C   0  0  0  0  0  0  0  0  0  0  0  0
   -1.4883   -0.8070    0.0792 C   0  0  0  0  0  0  0  0  0  0  0  0
   -1.5626    0.7298    0.1317 C   0  0  0  0  0  0  0  0  0  0  0  0
   -0.1205    1.2218    0.0460 C   0  0  0  0  0  0  0  0  0  0  0  0
    0.2663    2.3857    0.0547 O   0  0  0  0  0  0  0  0  0  0  0  0
    2.5920   -0.7265   -0.2039 H   0  0  0  0  0  0  0  0  0  0  0  0
    2.5374    0.7928    0.7367 H   0  0  0  0  0  0  0  0  0  0  0  0
    2.4136    0.8476   -1.0322 H   0  0  0  0  0  0  0  0  0  0  0  0
    0.2431   -1.7187   -0.9593 H   0  0  0  0  0  0  0  0  0  0  0  0
    0.3667   -1.7730    0.8098 H   0  0  0  0  0  0  0  0  0  0  0  0
   -1.9179   -1.2630    0.9782 H   0  0  0  0  0  0  0  0  0  0  0  0
   -2.0402   -1.2088   -0.7780 H   0  0  0  0  0  0  0  0  0  0  0  0
   -2.0096    1.1134    1.0579 H   0  0  0  0  0  0  0  0  0  0  0  0
   -2.1322    1.1674   -0.6983 H   0  0  0  0  0  0  0  0  0  0  0  0
  1  2  1  0  0  0  0
  1  9  1  0  0  0  0
  2  3  1  0  0  0  0
  2  6  1  0  0  0  0
  3  4  1  0  0  0  0
  3 12  1  0  0  0  0
  4  5  1  0  0  0  0
  4 13  1  0  0  0  0
  5 15  1  0  0  0  0
  6  7  2  0  0  0  0
  6  5  1  0  0  0  0
  8  1  1  0  0  0  0
 10  1  1  0  0  0  0
 11  3  1  0  0  0  0
 14  4  1  0  0  0  0
 16  5  1  0  0  0  0
M  END
>  <Charge>
0.0

>  <InChI>
1/C5H9NO/c1-6-4-2-3-5(6)7/h2-4H2,1H3

>  <Molecular Formula>
C_{5}H_{9}NO

>  <Name>
N-METHYLPYRROLIDONE

>  <SMILES>
CN1CCCC1=O

>  <logK (N-METHYLPYRROLIDONE)>
5.62

>  <Formula>
C5H9NO

>  <mean polarizability>
10.74

>  <dipole moment>
4.08155280893

$$$$
616
 OpenBabel08101817183D

 24 24  0  0  1  0  0  0  0  0999 V2000
    2.4628    1.0301    0.2857 C   0  0  0  0  0  0  0  0  0  0  0  0
    1.5734   -0.2010    0.0954 C   0  0  1  0  0  0  0  0  0  0  0  0
    0.5295   -0.3050    1.2301 C   0  0  0  0  0  0  0  0  0  0  0  0
   -0.6672   -1.1648    0.8177 C   0  0  0  0  0  0  0  0  0  0  0  0
   -1.4659   -0.5099   -0.3408 C   0  0  2  0  0  0  0  0  0  0  0  0
   -0.5400    0.3743   -1.2060 C   0  0  0  0  0  0  0  0  0  0  0  0
    0.8741   -0.2041   -1.2902 C   0  0  0  0  0  0  0  0  0  0  0  0
   -2.6630    0.2948    0.1715 C   0  0  0  0  0  0  0  0  0  0  0  0
    1.8750    1.9564    0.1912 H   0  0  0  0  0  0  0  0  0  0  0  0
    2.9284    1.0362    1.2822 H   0  0  0  0  0  0  0  0  0  0  0  0
    3.2670    1.0660   -0.4628 H   0  0  0  0  0  0  0  0  0  0  0  0
    2.2175   -1.0947    0.1490 H   0  0  0  0  0  0  0  0  0  0  0  0
    1.0051   -0.7027    2.1386 H   0  0  0  0  0  0  0  0  0  0  0  0
    0.1768    0.7068    1.4938 H   0  0  0  0  0  0  0  0  0  0  0  0
   -0.3008   -2.1565    0.5076 H   0  0  0  0  0  0  0  0  0  0  0  0
   -1.3336   -1.3417    1.6755 H   0  0  0  0  0  0  0  0  0  0  0  0
   -1.8526   -1.3193   -0.9823 H   0  0  0  0  0  0  0  0  0  0  0  0
   -0.9744    0.4989   -2.2088 H   0  0  0  0  0  0  0  0  0  0  0  0
   -0.4934    1.3872   -0.7708 H   0  0  0  0  0  0  0  0  0  0  0  0
    0.8133   -1.2336   -1.6781 H   0  0  0  0  0  0  0  0  0  0  0  0
    1.4822    0.3582   -2.0149 H   0  0  0  0  0  0  0  0  0  0  0  0
   -3.3763   -0.3435    0.7119 H   0  0  0  0  0  0  0  0  0  0  0  0
   -3.2024    0.7787   -0.6559 H   0  0  0  0  0  0  0  0  0  0  0  0
   -2.3353    1.0891    0.8601 H   0  0  0  0  0  0  0  0  0  0  0  0
  1 10  1  0  0  0  0
  2 12  1  1  0  0  0
  2  1  1  0  0  0  0
  2  3  1  0  0  0  0
  3 14  1  0  0  0  0
  3 13  1  0  0  0  0
  4  3  1  0  0  0  0
  4 16  1  0  0  0  0
  5 17  1  6  0  0  0
  5  8  1  0  0  0  0
  5  4  1  0  0  0  0
  6 19  1  0  0  0  0
  6  5  1  0  0  0  0
  7  6  1  0  0  0  0
  7  2  1  0  0  0  0
  8 22  1  0  0  0  0
  8 24  1  0  0  0  0
  9  1  1  0  0  0  0
 11  1  1  0  0  0  0
 15  4  1  0  0  0  0
 18  6  1  0  0  0  0
 20  7  1  0  0  0  0
 21  7  1  0  0  0  0
 23  8  1  0  0  0  0
M  END
>  <Charge>
0.0

>  <InChI>
1/C8H16/c1-7-3-5-8(2)6-4-7/h7-8H,3-6H2,1-2H3/t7-,8+

>  <Molecular Formula>
C_{8}H_{16}

>  <Name>
CIS-1,4-DIMETHYLCYCLOHEXANE

>  <SMILES>
C[C@H]1CC[C@H](CC1)C

>  <logK (4-FORMYLMORPHOLINE)>
2.47

>  <logK (TRIBUTYL PHOSPHATE)>
3.34

>  <mean polarizability>
14.58

>  <dipole moment>
0.213526820922

$$$$
617
 OpenBabel08101817183D

 24 24  0  0  1  0  0  0  0  0999 V2000
    2.7186   -0.1977   -0.6974 C   0  0  0  0  0  0  0  0  0  0  0  0
    1.5075    0.1198    0.1828 C   0  0  1  0  0  0  0  0  0  0  0  0
    0.5731    1.1746   -0.4660 C   0  0  0  0  0  0  0  0  0  0  0  0
   -0.5620    0.5156   -1.2546 C   0  0  0  0  0  0  0  0  0  0  0  0
   -1.5085   -0.2929   -0.3288 C   0  0  1  0  0  0  0  0  0  0  0  0
   -0.7325   -0.8498    0.8869 C   0  0  0  0  0  0  0  0  0  0  0  0
    0.7195   -1.1655    0.5249 C   0  0  0  0  0  0  0  0  0  0  0  0
   -2.7166    0.5310    0.1228 C   0  0  0  0  0  0  0  0  0  0  0  0
    2.4013   -0.5778   -1.6808 H   0  0  0  0  0  0  0  0  0  0  0  0
    3.3387    0.6940   -0.8665 H   0  0  0  0  0  0  0  0  0  0  0  0
    3.3545   -0.9682   -0.2372 H   0  0  0  0  0  0  0  0  0  0  0  0
    1.8816    0.5444    1.1295 H   0  0  0  0  0  0  0  0  0  0  0  0
    0.1400    1.8190    0.3152 H   0  0  0  0  0  0  0  0  0  0  0  0
    1.1592    1.8422   -1.1157 H   0  0  0  0  0  0  0  0  0  0  0  0
   -0.1290   -0.1505   -2.0175 H   0  0  0  0  0  0  0  0  0  0  0  0
   -1.1388    1.2719   -1.8082 H   0  0  0  0  0  0  0  0  0  0  0  0
   -1.8851   -1.1530   -0.9074 H   0  0  0  0  0  0  0  0  0  0  0  0
   -1.2458   -1.7394    1.2806 H   0  0  0  0  0  0  0  0  0  0  0  0
   -0.7457   -0.1060    1.7023 H   0  0  0  0  0  0  0  0  0  0  0  0
    1.2233   -1.7055    1.3400 H   0  0  0  0  0  0  0  0  0  0  0  0
    0.7330   -1.8461   -0.3440 H   0  0  0  0  0  0  0  0  0  0  0  0
   -3.3612   -0.0462    0.8020 H   0  0  0  0  0  0  0  0  0  0  0  0
   -3.3289    0.8506   -0.7323 H   0  0  0  0  0  0  0  0  0  0  0  0
   -2.3962    1.4352    0.6632 H   0  0  0  0  0  0  0  0  0  0  0  0
  1 11  1  0  0  0  0
  1  2  1  0  0  0  0
  2  7  1  0  0  0  0
  2 12  1  1  0  0  0
  3  2  1  0  0  0  0
  3 13  1  0  0  0  0
  4  3  1  0  0  0  0
  4  5  1  0  0  0  0
  5 17  1  6  0  0  0
  5  8  1  0  0  0  0
  5  6  1  0  0  0  0
  6 18  1  0  0  0  0
  6 19  1  0  0  0  0
  7  6  1  0  0  0  0
  7 20  1  0  0  0  0
  8 24  1  0  0  0  0
  8 22  1  0  0  0  0
  9  1  1  0  0  0  0
 10  1  1  0  0  0  0
 14  3  1  0  0  0  0
 15  4  1  0  0  0  0
 16  4  1  0  0  0  0
 21  7  1  0  0  0  0
 23  8  1  0  0  0  0
M  END
>  <Charge>
0.0

>  <InChI>
1/C8H16/c1-7-3-5-8(2)6-4-7/h7-8H,3-6H2,1-2H3/t7-,8-

>  <Molecular Formula>
C_{8}H_{16}

>  <Name>
TRANS-1,4-DIMETHYLCYCLOHEXANE

>  <SMILES>
C[C@H]1CC[C@@H](CC1)C

>  <logK (4-FORMYLMORPHOLINE)>
2.35

>  <logK (TRIBUTYL PHOSPHATE)>
3.25

>  <mean polarizability>
14.59

>  <dipole moment>
0.0734342612608

$$$$
618
 OpenBabel08101817183D

 24 24  0  0  1  0  0  0  0  0999 V2000
    1.9616   -1.4001    0.2216 C   0  0  0  0  0  0  0  0  0  0  0  0
    0.5619   -0.8224    0.4430 C   0  0  2  0  0  0  0  0  0  0  0  0
   -0.4145   -1.2599   -0.6613 C   0  0  0  0  0  0  0  0  0  0  0  0
   -1.8373   -0.7488   -0.4091 C   0  0  0  0  0  0  0  0  0  0  0  0
   -1.8598    0.7710   -0.2172 C   0  0  0  0  0  0  0  0  0  0  0  0
   -0.8854    1.2006    0.8861 C   0  0  0  0  0  0  0  0  0  0  0  0
    0.5565    0.7167    0.6337 C   0  0  2  0  0  0  0  0  0  0  0  0
    1.2256    1.4907   -0.5115 C   0  0  0  0  0  0  0  0  0  0  0  0
    2.6611   -1.0712    1.0042 H   0  0  0  0  0  0  0  0  0  0  0  0
    1.9362   -2.4990    0.2364 H   0  0  0  0  0  0  0  0  0  0  0  0
    2.3782   -1.0962   -0.7492 H   0  0  0  0  0  0  0  0  0  0  0  0
    0.1782   -1.2439    1.3910 H   0  0  0  0  0  0  0  0  0  0  0  0
   -0.4124   -2.3590   -0.7338 H   0  0  0  0  0  0  0  0  0  0  0  0
   -0.0564   -0.8910   -1.6377 H   0  0  0  0  0  0  0  0  0  0  0  0
   -2.5019   -1.0431   -1.2354 H   0  0  0  0  0  0  0  0  0  0  0  0
   -2.2366   -1.2319    0.4995 H   0  0  0  0  0  0  0  0  0  0  0  0
   -2.8772    1.1107    0.0280 H   0  0  0  0  0  0  0  0  0  0  0  0
   -1.5933    1.2639   -1.1665 H   0  0  0  0  0  0  0  0  0  0  0  0
   -1.2347    0.7827    1.8458 H   0  0  0  0  0  0  0  0  0  0  0  0
   -0.8957    2.2957    1.0020 H   0  0  0  0  0  0  0  0  0  0  0  0
    1.1410    0.9279    1.5464 H   0  0  0  0  0  0  0  0  0  0  0  0
    2.2875    1.2303   -0.6108 H   0  0  0  0  0  0  0  0  0  0  0  0
    0.7480    1.3041   -1.4829 H   0  0  0  0  0  0  0  0  0  0  0  0
    1.1695    2.5723   -0.3225 H   0  0  0  0  0  0  0  0  0  0  0  0
  1 10  1  0  0  0  0
  1  2  1  0  0  0  0
  1  9  1  0  0  0  0
  2  7  1  1  0  0  0
  2 12  1  0  0  0  0
  3  4  1  0  0  0  0
  3  2  1  0  0  0  0
  4  5  1  0  0  0  0
  4 16  1  0  0  0  0
  5 17  1  0  0  0  0
  5  6  1  0  0  0  0
  6 20  1  0  0  0  0
  6 19  1  0  0  0  0
  7  6  1  0  0  0  0
  7 21  1  1  0  0  0
  8 24  1  0  0  0  0
  8  7  1  0  0  0  0
 11  1  1  0  0  0  0
 13  3  1  0  0  0  0
 14  3  1  0  0  0  0
 15  4  1  0  0  0  0
 18  5  1  0  0  0  0
 22  8  1  0  0  0  0
 23  8  1  0  0  0  0
M  END
>  <Charge>
0.0

>  <InChI>
1/C8H16/c1-7-5-3-4-6-8(7)2/h7-8H,3-6H2,1-2H3/t7-,8+

>  <Molecular Formula>
C_{8}H_{16}

>  <Name>
1,2-CIS-DIMETHYLCYCLOHEXANE

>  <SMILES>
C[C@@H]1CCCC[C@@H]1C

>  <logK (4-FORMYLMORPHOLINE)>
2.59

>  <logK (TRIBUTYL PHOSPHATE)>
3.42

>  <mean polarizability>
14.53

>  <dipole moment>
0.133397477345

$$$$
619
 OpenBabel08101817183D

 24 24  0  0  1  0  0  0  0  0999 V2000
   -0.2051   -2.1114   -0.7487 C   0  0  0  0  0  0  0  0  0  0  0  0
   -0.5376   -1.0025    0.2582 C   0  0  1  0  0  0  0  0  0  0  0  0
    0.6484   -0.7033    1.1988 C   0  0  0  0  0  0  0  0  0  0  0  0
    1.7894    0.0502    0.5043 C   0  0  0  0  0  0  0  0  0  0  0  0
    1.2793    1.3425   -0.1422 C   0  0  0  0  0  0  0  0  0  0  0  0
    0.1234    1.0536   -1.1078 C   0  0  0  0  0  0  0  0  0  0  0  0
   -1.0396    0.2868   -0.4444 C   0  0  2  0  0  0  0  0  0  0  0  0
   -1.8469    1.1801    0.5066 C   0  0  0  0  0  0  0  0  0  0  0  0
    0.1085   -3.0297   -0.2317 H   0  0  0  0  0  0  0  0  0  0  0  0
   -1.0830   -2.3568   -1.3634 H   0  0  0  0  0  0  0  0  0  0  0  0
    0.6057   -1.8273   -1.4334 H   0  0  0  0  0  0  0  0  0  0  0  0
   -1.3672   -1.3761    0.8831 H   0  0  0  0  0  0  0  0  0  0  0  0
    0.2937   -0.0984    2.0493 H   0  0  0  0  0  0  0  0  0  0  0  0
    1.0186   -1.6466    1.6301 H   0  0  0  0  0  0  0  0  0  0  0  0
    2.2465   -0.5879   -0.2700 H   0  0  0  0  0  0  0  0  0  0  0  0
    2.5876    0.2710    1.2289 H   0  0  0  0  0  0  0  0  0  0  0  0
    0.9471    2.0373    0.6469 H   0  0  0  0  0  0  0  0  0  0  0  0
    2.0943    1.8537   -0.6764 H   0  0  0  0  0  0  0  0  0  0  0  0
   -0.2583    1.9916   -1.5405 H   0  0  0  0  0  0  0  0  0  0  0  0
    0.5112    0.4637   -1.9543 H   0  0  0  0  0  0  0  0  0  0  0  0
   -1.7273   -0.0281   -1.2483 H   0  0  0  0  0  0  0  0  0  0  0  0
   -1.2496    1.5348    1.3577 H   0  0  0  0  0  0  0  0  0  0  0  0
   -2.7099    0.6355    0.9156 H   0  0  0  0  0  0  0  0  0  0  0  0
   -2.2294    2.0672   -0.0184 H   0  0  0  0  0  0  0  0  0  0  0  0
  1  9  1  0  0  0  0
  1  2  1  0  0  0  0
  2 12  1  0  0  0  0
  2  3  1  0  0  0  0
  2  7  1  6  0  0  0
  3 14  1  0  0  0  0
  3 13  1  0  0  0  0
  4  3  1  0  0  0  0
  4 16  1  0  0  0  0
  5  4  1  0  0  0  0
  5 17  1  0  0  0  0
  6  7  1  0  0  0  0
  6  5  1  0  0  0  0
  7 21  1  6  0  0  0
  7  8  1  0  0  0  0
  8 23  1  0  0  0  0
  8 22  1  0  0  0  0
 10  1  1  0  0  0  0
 11  1  1  0  0  0  0
 15  4  1  0  0  0  0
 18  5  1  0  0  0  0
 19  6  1  0  0  0  0
 20  6  1  0  0  0  0
 24  8  1  0  0  0  0
M  END
>  <Charge>
0.0

>  <InChI>
1/C8H16/c1-7-5-3-4-6-8(7)2/h7-8H,3-6H2,1-2H3/t7-,8-/m0/s1

>  <Molecular Formula>
C_{8}H_{16}

>  <Name>
TRANS-1,2-DIMETHYLCYCLOHEXANE

>  <SMILES>
C[C@H]1CCCC[C@@H]1C

>  <logK (4-FORMYLMORPHOLINE)>
2.42

>  <logK (TRIBUTYL PHOSPHATE)>
3.29

>  <dipole moment>
0.0259713995821

$$$$
620
 OpenBabel08101817183D

 17 17  0  0  0  0  0  0  0  0999 V2000
    0.4130    0.6894   -1.0402 C   0  0  0  0  0  0  0  0  0  0  0  0
   -0.8897    1.3402   -0.5748 C   0  0  0  0  0  0  0  0  0  0  0  0
   -1.8839    0.3582   -0.2937 O   0  0  0  0  0  0  0  0  0  0  0  0
   -1.4433   -0.5288    0.7375 C   0  0  0  0  0  0  0  0  0  0  0  0
   -0.1650   -1.2624    0.3391 C   0  0  0  0  0  0  0  0  0  0  0  0
    0.8462   -0.2929   -0.0598 N   0  0  0  0  0  0  0  0  0  0  0  0
    2.1004   -0.3059    0.4795 C   0  0  0  0  0  0  0  0  0  0  0  0
    2.5078   -1.1030    1.3136 O   0  0  0  0  0  0  0  0  0  0  0  0
    1.2028    1.4443   -1.1636 H   0  0  0  0  0  0  0  0  0  0  0  0
    0.2459    0.1989   -2.0150 H   0  0  0  0  0  0  0  0  0  0  0  0
   -1.3035    1.9858   -1.3603 H   0  0  0  0  0  0  0  0  0  0  0  0
   -0.6978    1.9528    0.3277 H   0  0  0  0  0  0  0  0  0  0  0  0
   -1.2713    0.0400    1.6711 H   0  0  0  0  0  0  0  0  0  0  0  0
   -2.2625   -1.2399    0.9023 H   0  0  0  0  0  0  0  0  0  0  0  0
   -0.3750   -1.9438   -0.5027 H   0  0  0  0  0  0  0  0  0  0  0  0
    0.2435   -1.8468    1.1732 H   0  0  0  0  0  0  0  0  0  0  0  0
    2.7325    0.5139    0.0660 H   0  0  0  0  0  0  0  0  0  0  0  0
  1  2  1  0  0  0  0
  1  6  1  0  0  0  0
  2  3  1  0  0  0  0
  2 12  1  0  0  0  0
  3  4  1  0  0  0  0
  4 14  1  0  0  0  0
  4 13  1  0  0  0  0
  5  4  1  0  0  0  0
  5 16  1  0  0  0  0
  6  5  1  0  0  0  0
  6  7  1  0  0  0  0
  7  8  2  0  0  0  0
  9  1  1  0  0  0  0
 10  1  1  0  0  0  0
 11  2  1  0  0  0  0
 15  5  1  0  0  0  0
 17  7  1  0  0  0  0
M  END
>  <Charge>
0.0

>  <InChI>
1/C5H9NO2/c7-5-6-1-3-8-4-2-6/h5H,1-4H2

>  <Molecular Formula>
C_{5}H_{9}NO_{2}

>  <Name>
4-FORMYLMORPHOLINE

>  <SMILES>
C1COCCN1C=O

>  <logK (4-FORMYLMORPHOLINE)>
6.18

>  <Formula>
C5H9NO2

>  <mean polarizability>
11.74

>  <dipole moment>
3.00701482552

$$$$
621
 OpenBabel08101817183D

 12 11  0  0  0  0  0  0  0  0999 V2000
   -1.7847   -0.2845   -0.2311 C   0  0  0  0  0  0  0  0  0  0  0  0
   -0.3394    0.0655    0.0245 C   0  0  0  0  0  0  0  0  0  0  0  0
    0.6030   -0.6854   -0.3687 N   0  0  0  0  0  0  0  0  0  0  0  0
    1.9753   -0.2880   -0.0889 C   0  0  0  0  0  0  0  0  0  0  0  0
   -0.0948    1.2429    0.7067 O   0  0  0  0  0  0  0  0  0  0  0  0
   -2.4815    0.4639    0.1699 H   0  0  0  0  0  0  0  0  0  0  0  0
   -1.9617   -0.3763   -1.3094 H   0  0  0  0  0  0  0  0  0  0  0  0
   -2.0207   -1.2534    0.2250 H   0  0  0  0  0  0  0  0  0  0  0  0
    2.6564   -1.0447   -0.4953 H   0  0  0  0  0  0  0  0  0  0  0  0
    2.2236    0.6847   -0.5439 H   0  0  0  0  0  0  0  0  0  0  0  0
    2.1645   -0.1940    0.9929 H   0  0  0  0  0  0  0  0  0  0  0  0
   -0.9400    1.6694    0.9180 H   0  0  0  0  0  0  0  0  0  0  0  0
  1  2  1  0  0  0  0
  1  6  1  0  0  0  0
  1  8  1  0  0  0  0
  2  5  1  0  0  0  0
  3  4  1  0  0  0  0
  3  2  2  0  0  0  0
  4 11  1  0  0  0  0
  5 12  1  0  0  0  0
  7  1  1  0  0  0  0
  9  4  1  0  0  0  0
 10  4  1  0  0  0  0
M  END
>  <Charge>
0.0

>  <InChI>
1/C3H7NO/c1-3(5)4-2/h1-2H3,(H,4,5)

>  <Molecular Formula>
C_{3}H_{7}NO

>  <Name>
N-METHYLACETAMIDE

>  <SMILES>
C/C(=N/C)/O

>  <logK (N-METHYLACETAMIDE)>
6.31

>  <mean polarizability>
8.04

>  <dipole moment>
2.60307447728

>  <Formula>
C3H7NO

$$$$
622
 OpenBabel08101817183D

 22 21  0  0  0  0  0  0  0  0999 V2000
   -1.9694    1.0641    1.0133 C   0  0  0  0  0  0  0  0  0  0  0  0
   -1.2961   -0.2833    0.7330 C   0  0  0  0  0  0  0  0  0  0  0  0
   -2.3231   -1.3077    0.2385 C   0  0  0  0  0  0  0  0  0  0  0  0
   -0.1416   -0.1642   -0.2774 C   0  0  0  0  0  0  0  0  0  0  0  0
    1.0378    0.7055    0.1990 C   0  0  0  0  0  0  0  0  0  0  0  0
    2.1509    0.7099   -0.8382 C   0  0  0  0  0  0  0  0  0  0  0  0
    2.1734    1.5299   -1.7409 O   0  0  0  0  0  0  0  0  0  0  0  0
    3.2112   -0.3653   -0.7090 C   0  0  0  0  0  0  0  0  0  0  0  0
   -2.7985    0.9460    1.7247 H   0  0  0  0  0  0  0  0  0  0  0  0
   -2.3831    1.4918    0.0872 H   0  0  0  0  0  0  0  0  0  0  0  0
   -1.2726    1.7981    1.4387 H   0  0  0  0  0  0  0  0  0  0  0  0
   -0.8716   -0.6579    1.6815 H   0  0  0  0  0  0  0  0  0  0  0  0
   -1.8620   -2.2907    0.0681 H   0  0  0  0  0  0  0  0  0  0  0  0
   -3.1365   -1.4379    0.9656 H   0  0  0  0  0  0  0  0  0  0  0  0
   -2.7745   -0.9808   -0.7104 H   0  0  0  0  0  0  0  0  0  0  0  0
   -0.5273    0.2501   -1.2232 H   0  0  0  0  0  0  0  0  0  0  0  0
    0.2254   -1.1777   -0.5085 H   0  0  0  0  0  0  0  0  0  0  0  0
    0.7113    1.7437    0.3390 H   0  0  0  0  0  0  0  0  0  0  0  0
    1.4114    0.3189    1.1604 H   0  0  0  0  0  0  0  0  0  0  0  0
    2.7565   -1.3530   -0.5477 H   0  0  0  0  0  0  0  0  0  0  0  0
    3.8497   -0.3827   -1.5974 H   0  0  0  0  0  0  0  0  0  0  0  0
    3.8288   -0.1567    0.1780 H   0  0  0  0  0  0  0  0  0  0  0  0
  1 11  1  0  0  0  0
  1  9  1  0  0  0  0
  2  1  1  0  0  0  0
  2 12  1  0  0  0  0
  3  2  1  0  0  0  0
  3 14  1  0  0  0  0
  4  5  1  0  0  0  0
  4  2  1  0  0  0  0
  5 18  1  0  0  0  0
  5 19  1  0  0  0  0
  6  8  1  0  0  0  0
  6  5  1  0  0  0  0
  7  6  2  0  0  0  0
  8 20  1  0  0  0  0
  8 22  1  0  0  0  0
 10  1  1  0  0  0  0
 13  3  1  0  0  0  0
 15  3  1  0  0  0  0
 16  4  1  0  0  0  0
 17  4  1  0  0  0  0
 21  8  1  0  0  0  0
M  END
>  <Charge>
0.0

>  <InChI>
1/C7H14O/c1-6(2)4-5-7(3)8/h6H,4-5H2,1-3H3

>  <Molecular Formula>
C_{7}H_{14}O

>  <Name>
5-METHYL-2-HEXANONE

>  <SMILES>
CC(C)CCC(=O)C

>  <logK (FORMAMIDE)>
3.31

>  <mean polarizability>
14.08

>  <dipole moment>
3.06185398034

$$$$
623
 OpenBabel08101817183D

 25 24  0  0  0  0  0  0  0  0999 V2000
   -2.5862   -0.5602    0.8056 C   0  0  0  0  0  0  0  0  0  0  0  0
   -1.7172    0.4127    0.0008 C   0  0  0  0  0  0  0  0  0  0  0  0
   -2.5033    0.9790   -1.1863 C   0  0  0  0  0  0  0  0  0  0  0  0
   -0.4066   -0.2312   -0.4818 C   0  0  0  0  0  0  0  0  0  0  0  0
    0.5559   -0.6537    0.6317 C   0  0  0  0  0  0  0  0  0  0  0  0
    1.8809   -1.2252    0.0993 C   0  0  0  0  0  0  0  0  0  0  0  0
    2.7404   -0.2440   -0.6865 C   0  0  0  0  0  0  0  0  0  0  0  0
    3.1716   -0.5189   -1.7940 O   0  0  0  0  0  0  0  0  0  0  0  0
    3.0540    1.0874   -0.0290 C   0  0  0  0  0  0  0  0  0  0  0  0
   -3.5167   -0.0762    1.1333 H   0  0  0  0  0  0  0  0  0  0  0  0
   -2.8633   -1.4309    0.1914 H   0  0  0  0  0  0  0  0  0  0  0  0
   -2.0752   -0.9323    1.7035 H   0  0  0  0  0  0  0  0  0  0  0  0
   -1.4491    1.2564    0.6625 H   0  0  0  0  0  0  0  0  0  0  0  0
   -3.4252    1.4764   -0.8543 H   0  0  0  0  0  0  0  0  0  0  0  0
   -1.9084    1.7109   -1.7504 H   0  0  0  0  0  0  0  0  0  0  0  0
   -2.7908    0.1762   -1.8823 H   0  0  0  0  0  0  0  0  0  0  0  0
   -0.6462   -1.1087   -1.1075 H   0  0  0  0  0  0  0  0  0  0  0  0
    0.1047    0.4796   -1.1529 H   0  0  0  0  0  0  0  0  0  0  0  0
    0.7564    0.2049    1.2932 H   0  0  0  0  0  0  0  0  0  0  0  0
    0.0862   -1.4194    1.2661 H   0  0  0  0  0  0  0  0  0  0  0  0
    1.7009   -2.0939   -0.5485 H   0  0  0  0  0  0  0  0  0  0  0  0
    2.4915   -1.5708    0.9515 H   0  0  0  0  0  0  0  0  0  0  0  0
    3.3219    0.9641    1.0299 H   0  0  0  0  0  0  0  0  0  0  0  0
    2.1616    1.7312   -0.0567 H   0  0  0  0  0  0  0  0  0  0  0  0
    3.8621    1.5864   -0.5723 H   0  0  0  0  0  0  0  0  0  0  0  0
  1 10  1  0  0  0  0
  1 12  1  0  0  0  0
  2 13  1  0  0  0  0
  2  1  1  0  0  0  0
  3 14  1  0  0  0  0
  3  2  1  0  0  0  0
  4  2  1  0  0  0  0
  4  5  1  0  0  0  0
  5 20  1  0  0  0  0
  5 19  1  0  0  0  0
  6  5  1  0  0  0  0
  6 22  1  0  0  0  0
  7  9  1  0  0  0  0
  7  6  1  0  0  0  0
  8  7  2  0  0  0  0
  9 23  1  0  0  0  0
 11  1  1  0  0  0  0
 15  3  1  0  0  0  0
 16  3  1  0  0  0  0
 17  4  1  0  0  0  0
 18  4  1  0  0  0  0
 21  6  1  0  0  0  0
 24  9  1  0  0  0  0
 25  9  1  0  0  0  0
M  END
>  <Charge>
0.0

>  <InChI>
1/C8H16O/c1-7(2)5-4-6-8(3)9/h7H,4-6H2,1-3H3

>  <Molecular Formula>
C_{8}H_{16}O

>  <Name>
2-METHYL-6-HEPTANONE

>  <SMILES>
CC(C)CCCC(=O)C

>  <logK (FORMAMIDE)>
3.49

>  <mean polarizability>
15.76

>  <dipole moment>
3.11676609668

$$$$
624
 OpenBabel08101817183D

 28 27  0  0  0  0  0  0  0  0999 V2000
   -3.6295    0.2086   -0.7666 C   0  0  0  0  0  0  0  0  0  0  0  0
   -2.4484    0.0095    0.1884 C   0  0  0  0  0  0  0  0  0  0  0  0
   -2.0624   -1.4714    0.2643 C   0  0  0  0  0  0  0  0  0  0  0  0
   -1.2730    0.9190   -0.2149 C   0  0  0  0  0  0  0  0  0  0  0  0
   -0.0641    0.8977    0.7443 C   0  0  0  0  0  0  0  0  0  0  0  0
    1.1262    0.0370    0.2912 C   0  0  0  0  0  0  0  0  0  0  0  0
    1.8945    0.6549   -0.8915 C   0  0  0  0  0  0  0  0  0  0  0  0
    3.0419   -0.2064   -1.3967 C   0  0  0  0  0  0  0  0  0  0  0  0
    3.0652   -0.6317   -2.5399 O   0  0  0  0  0  0  0  0  0  0  0  0
    4.1524   -0.5292   -0.4136 C   0  0  0  0  0  0  0  0  0  0  0  0
   -4.4964   -0.3936   -0.4608 H   0  0  0  0  0  0  0  0  0  0  0  0
   -3.3592   -0.0945   -1.7895 H   0  0  0  0  0  0  0  0  0  0  0  0
   -3.9448    1.2608   -0.8033 H   0  0  0  0  0  0  0  0  0  0  0  0
   -2.7715    0.3249    1.1971 H   0  0  0  0  0  0  0  0  0  0  0  0
   -1.7126   -1.8355   -0.7138 H   0  0  0  0  0  0  0  0  0  0  0  0
   -1.2655   -1.6554    0.9973 H   0  0  0  0  0  0  0  0  0  0  0  0
   -2.9257   -2.0854    0.5574 H   0  0  0  0  0  0  0  0  0  0  0  0
   -1.6585    1.9471   -0.2936 H   0  0  0  0  0  0  0  0  0  0  0  0
   -0.9518    0.6466   -1.2350 H   0  0  0  0  0  0  0  0  0  0  0  0
   -0.3992    0.5481    1.7343 H   0  0  0  0  0  0  0  0  0  0  0  0
    0.3009    1.9248    0.9031 H   0  0  0  0  0  0  0  0  0  0  0  0
    0.7770   -0.9680    0.0086 H   0  0  0  0  0  0  0  0  0  0  0  0
    1.8130   -0.0979    1.1405 H   0  0  0  0  0  0  0  0  0  0  0  0
    2.3085    1.6272   -0.5723 H   0  0  0  0  0  0  0  0  0  0  0  0
    1.2267    0.8380   -1.7431 H   0  0  0  0  0  0  0  0  0  0  0  0
    3.8072   -1.3144    0.2766 H   0  0  0  0  0  0  0  0  0  0  0  0
    5.0294   -0.9025   -0.9520 H   0  0  0  0  0  0  0  0  0  0  0  0
    4.4198    0.3414    0.2013 H   0  0  0  0  0  0  0  0  0  0  0  0
  1 11  1  0  0  0  0
  1  2  1  0  0  0  0
  2  3  1  0  0  0  0
  2 14  1  0  0  0  0
  3 17  1  0  0  0  0
  3 16  1  0  0  0  0
  4  2  1  0  0  0  0
  4  5  1  0  0  0  0
  5 21  1  0  0  0  0
  5 20  1  0  0  0  0
  6  5  1  0  0  0  0
  6 23  1  0  0  0  0
  7 24  1  0  0  0  0
  7  6  1  0  0  0  0
  8  7  1  0  0  0  0
  8 10  1  0  0  0  0
  9  8  2  0  0  0  0
 10 28  1  0  0  0  0
 10 26  1  0  0  0  0
 12  1  1  0  0  0  0
 13  1  1  0  0  0  0
 15  3  1  0  0  0  0
 18  4  1  0  0  0  0
 19  4  1  0  0  0  0
 22  6  1  0  0  0  0
 25  7  1  0  0  0  0
 27 10  1  0  0  0  0
M  END
>  <Charge>
0.0

>  <InChI>
1/C9H18O/c1-8(2)6-4-5-7-9(3)10/h8H,4-7H2,1-3H3

>  <Molecular Formula>
C_{9}H_{18}O

>  <Name>
7-METHYL-2-OCTANONE

>  <SMILES>
CC(C)CCCCC(=O)C

>  <logK (FORMAMIDE)>
3.73

>  <mean polarizability>
17.71

>  <dipole moment>
3.19876036348

$$$$
625
 OpenBabel08101817183D

  6  5  0  0  0  0  0  0  0  0999 V2000
    0.6627    0.0122   -0.0597 C   0  0  0  0  0  0  0  0  0  0  0  0
    1.3850   -0.9697   -0.0538 O   0  0  0  0  0  0  0  0  0  0  0  0
   -0.6935   -0.0176    0.0627 N   0  0  0  0  0  0  0  0  0  0  0  0
    1.0518    1.0514   -0.1680 H   0  0  0  0  0  0  0  0  0  0  0  0
   -1.1649   -0.9091    0.1679 H   0  0  0  0  0  0  0  0  0  0  0  0
   -1.2411    0.8328    0.0508 H   0  0  0  0  0  0  0  0  0  0  0  0
  1  2  2  0  0  0  0
  1  3  1  0  0  0  0
  3  5  1  0  0  0  0
  4  1  1  0  0  0  0
  6  3  1  0  0  0  0
M  END
>  <Charge>
0.0

>  <InChI>
1/CH3NO/c2-1-3/h1H,(H2,2,3)

>  <Molecular Formula>
CH_{3}NO

>  <Name>
FORMAMIDE

>  <SMILES>
C(=O)N

>  <logK (FORMAMIDE)>
7.3

>  <mean polarizability>
4.2

>  <dipole moment>
3.86907538772

>  <Formula>
CH3NO

$$$$
626
 OpenBabel08101817183D

 12 11  0  0  0  0  0  0  0  0999 V2000
   -0.2610    1.1975   -0.4484 C   0  0  0  0  0  0  0  0  0  0  0  0
   -0.2366   -0.2427   -0.0103 C   0  0  0  0  0  0  0  0  0  0  0  0
   -1.2906   -1.0601   -0.1345 C   0  0  0  0  0  0  0  0  0  0  0  0
    1.0160   -0.8212    0.5999 C   0  0  0  0  0  0  0  0  0  0  0  0
    1.1308   -1.9632    0.9803 O   0  0  0  0  0  0  0  0  0  0  0  0
    2.0784    0.0364    0.7150 O   0  0  0  0  0  0  0  0  0  0  0  0
   -0.0733    1.8864    0.3913 H   0  0  0  0  0  0  0  0  0  0  0  0
    0.4915    1.4038   -1.2269 H   0  0  0  0  0  0  0  0  0  0  0  0
   -1.2393    1.4597   -0.8680 H   0  0  0  0  0  0  0  0  0  0  0  0
   -2.2298   -0.7144   -0.5655 H   0  0  0  0  0  0  0  0  0  0  0  0
   -1.2202   -2.0945    0.1987 H   0  0  0  0  0  0  0  0  0  0  0  0
    1.8339    0.9122    0.3685 H   0  0  0  0  0  0  0  0  0  0  0  0
  1  2  1  0  0  0  0
  1  7  1  0  0  0  0
  2  4  1  0  0  0  0
  3  2  2  0  0  0  0
  3 11  1  0  0  0  0
  4  6  1  0  0  0  0
  4  5  2  0  0  0  0
  8  1  1  0  0  0  0
  9  1  1  0  0  0  0
 10  3  1  0  0  0  0
 12  6  1  0  0  0  0
M  END
>  <Charge>
0.0

>  <InChI>
1/C4H6O2/c1-3(2)4(5)6/h1H2,2H3,(H,5,6)

>  <Molecular Formula>
C_{4}H_{6}O_{2}

>  <Name>
METHACRYLIC ACID

>  <SMILES>
CC(=C)C(=O)O

>  <logK (CHLOROBENZENE)>
3.94

>  <mean polarizability>
8.74

>  <dipole moment>
4.61125464426

$$$$
627
 OpenBabel08101817183D

 19 18  0  0  0  0  0  0  0  0999 V2000
   -1.7183    0.1843   -1.0057 C   0  0  0  0  0  0  0  0  0  0  0  0
   -1.1639    0.1999    0.4192 C   0  0  0  0  0  0  0  0  0  0  0  0
   -1.9605   -0.7020    1.3510 C   0  0  0  0  0  0  0  0  0  0  0  0
    0.1938   -0.2626    0.4716 O   0  0  0  0  0  0  0  0  0  0  0  0
    1.1490    0.6789    0.0104 C   0  0  0  0  0  0  0  0  0  0  0  0
    2.5365    0.0872    0.1253 C   0  0  0  0  0  0  0  0  0  0  0  0
    2.7287   -0.8630   -0.9264 O   0  0  0  0  0  0  0  0  0  0  0  0
   -1.1361    0.8248   -1.6807 H   0  0  0  0  0  0  0  0  0  0  0  0
   -1.7040   -0.8392   -1.4046 H   0  0  0  0  0  0  0  0  0  0  0  0
   -2.7551    0.5483   -1.0161 H   0  0  0  0  0  0  0  0  0  0  0  0
   -1.1931    1.2388    0.8074 H   0  0  0  0  0  0  0  0  0  0  0  0
   -3.0136   -0.3933    1.3822 H   0  0  0  0  0  0  0  0  0  0  0  0
   -1.9147   -1.7421    0.9999 H   0  0  0  0  0  0  0  0  0  0  0  0
   -1.5534   -0.6638    2.3691 H   0  0  0  0  0  0  0  0  0  0  0  0
    0.9720    0.9599   -1.0441 H   0  0  0  0  0  0  0  0  0  0  0  0
    1.0998    1.6035    0.6207 H   0  0  0  0  0  0  0  0  0  0  0  0
    3.2724    0.9098    0.0516 H   0  0  0  0  0  0  0  0  0  0  0  0
    2.6416   -0.3854    1.1169 H   0  0  0  0  0  0  0  0  0  0  0  0
    3.5189   -1.3840   -0.7234 H   0  0  0  0  0  0  0  0  0  0  0  0
  1  2  1  0  0  0  0
  2  4  1  0  0  0  0
  2 11  1  0  0  0  0
  2  3  1  0  0  0  0
  3 12  1  0  0  0  0
  3 14  1  0  0  0  0
  5  6  1  0  0  0  0
  5  4  1  0  0  0  0
  5 16  1  0  0  0  0
  6 18  1  0  0  0  0
  7 19  1  0  0  0  0
  7  6  1  0  0  0  0
  8  1  1  0  0  0  0
  9  1  1  0  0  0  0
 10  1  1  0  0  0  0
 13  3  1  0  0  0  0
 15  5  1  0  0  0  0
 17  6  1  0  0  0  0
M  END
>  <Charge>
0.0

>  <InChI>
1/C5H12O2/c1-5(2)7-4-3-6/h5-6H,3-4H2,1-2H3

>  <Molecular Formula>
C_{5}H_{12}O_{2}

>  <Name>
2-ISOPROPOXYETHANOL

>  <SMILES>
CC(C)OCCO

>  <logK (CHLOROBENZENE)>
3.97

>  <mean polarizability>
11.61

>  <dipole moment>
1.38284800686

>  <Formula>
C5H12O2

$$$$
628
 OpenBabel08101817183D

 16 15  0  0  1  0  0  0  0  0999 V2000
   -0.6901   -1.4534   -0.5718 O   0  0  0  0  0  0  0  0  0  0  0  0
   -0.9051   -0.3629    0.3203 C   0  0  1  0  0  0  0  0  0  0  0  0
   -0.0556    0.7355    0.0612 O   0  0  0  0  0  0  0  0  0  0  0  0
    1.3375    0.5145    0.3373 C   0  0  0  0  0  0  0  0  0  0  0  0
    2.1416    0.1447   -0.9013 C   0  0  0  0  0  0  0  0  0  0  0  0
   -2.3325    0.1537    0.2682 C   0  0  0  0  0  0  0  0  0  0  0  0
   -0.9690   -1.1599   -1.4559 H   0  0  0  0  0  0  0  0  0  0  0  0
   -0.6682   -0.7908    1.3113 H   0  0  0  0  0  0  0  0  0  0  0  0
    1.4394   -0.2638    1.1130 H   0  0  0  0  0  0  0  0  0  0  0  0
    1.7090    1.4597    0.7608 H   0  0  0  0  0  0  0  0  0  0  0  0
    3.2101    0.0820   -0.6482 H   0  0  0  0  0  0  0  0  0  0  0  0
    2.0221    0.9094   -1.6800 H   0  0  0  0  0  0  0  0  0  0  0  0
    1.8227   -0.8229   -1.3051 H   0  0  0  0  0  0  0  0  0  0  0  0
   -2.4900    0.9336    1.0229 H   0  0  0  0  0  0  0  0  0  0  0  0
   -3.0344   -0.6687    0.4484 H   0  0  0  0  0  0  0  0  0  0  0  0
   -2.5378    0.5893   -0.7205 H   0  0  0  0  0  0  0  0  0  0  0  0
  1  2  1  0  0  0  0
  2  8  1  1  0  0  0
  3  2  1  0  0  0  0
  3  4  1  0  0  0  0
  4 10  1  0  0  0  0
  4  9  1  0  0  0  0
  5 11  1  0  0  0  0
  5  4  1  0  0  0  0
  6  2  1  0  0  0  0
  6 15  1  0  0  0  0
  6 14  1  0  0  0  0
  7  1  1  0  0  0  0
 12  5  1  0  0  0  0
 13  5  1  0  0  0  0
 16  6  1  0  0  0  0
M  END
>  <Charge>
0.0

>  <InChI>
1/C4H10O2/c1-3-6-4(2)5/h4-5H,3H2,1-2H3

>  <Molecular Formula>
C_{4}H_{10}O_{2}

>  <Name>
ETHOXYETHANOL

>  <SMILES>
OC(OCC)C

>  <logK (BROMOBENZENE)>
3.61

>  <mean polarizability>
9.68

>  <dipole moment>
0.391947290594

$$$$
629
 OpenBabel08101817183D

 19 18  0  0  1  0  0  0  0  0999 V2000
   -2.0106    0.8751   -0.6913 C   0  0  0  0  0  0  0  0  0  0  0  0
   -0.9995    0.3125    0.2957 C   0  0  0  0  0  0  0  0  0  0  0  0
   -1.5312   -0.9125    1.0354 C   0  0  0  0  0  0  0  0  0  0  0  0
    0.1810   -0.0309   -0.4700 O   0  0  0  0  0  0  0  0  0  0  0  0
    1.3902   -0.0095    0.2630 C   0  0  1  0  0  0  0  0  0  0  0  0
    2.4402   -0.6975   -0.5911 C   0  0  0  0  0  0  0  0  0  0  0  0
    1.7673    1.3146    0.6304 O   0  0  0  0  0  0  0  0  0  0  0  0
   -2.2515    0.1271   -1.4597 H   0  0  0  0  0  0  0  0  0  0  0  0
   -1.6120    1.7667   -1.1913 H   0  0  0  0  0  0  0  0  0  0  0  0
   -2.9400    1.1510   -0.1753 H   0  0  0  0  0  0  0  0  0  0  0  0
   -0.7230    1.0975    1.0196 H   0  0  0  0  0  0  0  0  0  0  0  0
   -2.4105   -0.6461    1.6384 H   0  0  0  0  0  0  0  0  0  0  0  0
   -0.7790   -1.3336    1.7158 H   0  0  0  0  0  0  0  0  0  0  0  0
   -1.8244   -1.6927    0.3194 H   0  0  0  0  0  0  0  0  0  0  0  0
    1.2692   -0.5227    1.2328 H   0  0  0  0  0  0  0  0  0  0  0  0
    2.1530   -1.7370   -0.7917 H   0  0  0  0  0  0  0  0  0  0  0  0
    3.4101   -0.6835   -0.0811 H   0  0  0  0  0  0  0  0  0  0  0  0
    2.5350   -0.1781   -1.5556 H   0  0  0  0  0  0  0  0  0  0  0  0
    1.9359    1.7996   -0.1958 H   0  0  0  0  0  0  0  0  0  0  0  0
  1 10  1  0  0  0  0
  1  2  1  0  0  0  0
  2 11  1  0  0  0  0
  2  3  1  0  0  0  0
  3 12  1  0  0  0  0
  3 13  1  0  0  0  0
  4  5  1  0  0  0  0
  4  2  1  0  0  0  0
  5  7  1  0  0  0  0
  5 15  1  1  0  0  0
  6 17  1  0  0  0  0
  6  5  1  0  0  0  0
  8  1  1  0  0  0  0
  9  1  1  0  0  0  0
 14  3  1  0  0  0  0
 16  6  1  0  0  0  0
 18  6  1  0  0  0  0
 19  7  1  0  0  0  0
M  END
>  <Charge>
0.0

>  <InChI>
1/C5H12O2/c1-4(2)7-5(3)6/h4-6H,1-3H3

>  <Molecular Formula>
C_{5}H_{12}O_{2}

>  <Name>
ISOPROPOXYETHANOL

>  <SMILES>
CC(C)OC(C)O

>  <logK (BROMOBENZENE)>
3.97

>  <mean polarizability>
11.56

>  <dipole moment>
0.463365148895

$$$$
630
 OpenBabel08101817183D

 26 29  0  0  0  0  0  0  0  0999 V2000
   -3.5172    0.2277    0.0010 C   0  0  0  0  0  0  0  0  0  0  0  0
   -2.7504    1.3783    0.1797 C   0  0  0  0  0  0  0  0  0  0  0  0
   -1.3464    1.3134    0.1832 C   0  0  0  0  0  0  0  0  0  0  0  0
   -0.5239    2.4737    0.3639 C   0  0  0  0  0  0  0  0  0  0  0  0
    0.8386    2.3855    0.3634 C   0  0  0  0  0  0  0  0  0  0  0  0
    1.5046    1.1289    0.1825 C   0  0  0  0  0  0  0  0  0  0  0  0
    2.9053    1.0122    0.1781 C   0  0  0  0  0  0  0  0  0  0  0  0
    3.5172   -0.2277   -0.0010 C   0  0  0  0  0  0  0  0  0  0  0  0
    2.7504   -1.3783   -0.1797 C   0  0  0  0  0  0  0  0  0  0  0  0
    1.3464   -1.3134   -0.1832 C   0  0  0  0  0  0  0  0  0  0  0  0
    0.7104   -0.0460   -0.0004 C   0  0  0  0  0  0  0  0  0  0  0  0
   -0.7104    0.0460    0.0004 C   0  0  0  0  0  0  0  0  0  0  0  0
   -1.5046   -1.1289   -0.1825 C   0  0  0  0  0  0  0  0  0  0  0  0
   -2.9053   -1.0122   -0.1781 C   0  0  0  0  0  0  0  0  0  0  0  0
   -0.8386   -2.3855   -0.3634 C   0  0  0  0  0  0  0  0  0  0  0  0
    0.5239   -2.4737   -0.3639 C   0  0  0  0  0  0  0  0  0  0  0  0
   -4.6051    0.2981    0.0013 H   0  0  0  0  0  0  0  0  0  0  0  0
   -3.2365    2.3450    0.3192 H   0  0  0  0  0  0  0  0  0  0  0  0
   -1.0134    3.4390    0.5031 H   0  0  0  0  0  0  0  0  0  0  0  0
    1.4486    3.2797    0.5024 H   0  0  0  0  0  0  0  0  0  0  0  0
    3.5120    1.9082    0.3174 H   0  0  0  0  0  0  0  0  0  0  0  0
    4.6051   -0.2981   -0.0013 H   0  0  0  0  0  0  0  0  0  0  0  0
    3.2365   -2.3450   -0.3192 H   0  0  0  0  0  0  0  0  0  0  0  0
   -3.5120   -1.9082   -0.3174 H   0  0  0  0  0  0  0  0  0  0  0  0
   -1.4486   -3.2797   -0.5024 H   0  0  0  0  0  0  0  0  0  0  0  0
    1.0134   -3.4390   -0.5031 H   0  0  0  0  0  0  0  0  0  0  0  0
  1 17  1  0  0  0  0
  1  2  2  0  0  0  0
  2  3  1  0  0  0  0
  2 18  1  0  0  0  0
  3  4  2  0  0  0  0
  4 19  1  0  0  0  0
  5  4  1  0  0  0  0
  5 20  1  0  0  0  0
  6  5  2  0  0  0  0
  7  6  1  0  0  0  0
  7 21  1  0  0  0  0
  8  7  2  0  0  0  0
  9  8  1  0  0  0  0
 10  9  2  0  0  0  0
 10 11  1  0  0  0  0
 11 12  2  0  0  0  0
 11  6  1  0  0  0  0
 12  3  1  0  0  0  0
 13 14  2  0  0  0  0
 13 12  1  0  0  0  0
 14  1  1  0  0  0  0
 15 13  1  0  0  0  0
 16 15  2  0  0  0  0
 16 10  1  0  0  0  0
 22  8  1  0  0  0  0
 23  9  1  0  0  0  0
 24 14  1  0  0  0  0
 25 15  1  0  0  0  0
 26 16  1  0  0  0  0
M  END
>  <Charge>
0.0

>  <InChI>
1/C16H10/c1-3-11-7-9-13-5-2-6-14-10-8-12(4-1)15(11)16(13)14/h1-10H

>  <Molecular Formula>
C_{16}H_{10}

>  <Name>
PYRENE

>  <SMILES>
c1cc2ccc3cccc4c3c2c(c1)cc4

>  <logK (BENZONITRILE)>
9.6

>  <dipole moment>
5.74873111935e-12

$$$$
631
 OpenBabel08101817183D

 24 24  0  0  1  0  0  0  0  0999 V2000
    2.6401   -0.7699    0.0719 C   0  0  0  0  0  0  0  0  0  0  0  0
    1.2934   -0.1738   -0.3383 C   0  0  2  0  0  0  0  0  0  0  0  0
    1.1252    1.2699    0.1935 C   0  0  0  0  0  0  0  0  0  0  0  0
   -0.3539    1.6782    0.3554 C   0  0  0  0  0  0  0  0  0  0  0  0
   -1.2322    0.9819   -0.6867 C   0  0  0  0  0  0  0  0  0  0  0  0
   -1.2293   -0.5571   -0.4934 C   0  0  1  0  0  0  0  0  0  0  0  0
    0.1083   -1.0325    0.1182 C   0  0  0  0  0  0  0  0  0  0  0  0
   -2.4142   -1.0290    0.3539 C   0  0  0  0  0  0  0  0  0  0  0  0
    2.7939   -1.7627   -0.3750 H   0  0  0  0  0  0  0  0  0  0  0  0
    2.7001   -0.8813    1.1655 H   0  0  0  0  0  0  0  0  0  0  0  0
    3.4754   -0.1269   -0.2419 H   0  0  0  0  0  0  0  0  0  0  0  0
    1.2664   -0.1390   -1.4421 H   0  0  0  0  0  0  0  0  0  0  0  0
    1.6372    1.9671   -0.4878 H   0  0  0  0  0  0  0  0  0  0  0  0
    1.6392    1.3584    1.1646 H   0  0  0  0  0  0  0  0  0  0  0  0
   -0.4575    2.7703    0.2848 H   0  0  0  0  0  0  0  0  0  0  0  0
   -0.7087    1.4073    1.3626 H   0  0  0  0  0  0  0  0  0  0  0  0
   -0.8591    1.2344   -1.6921 H   0  0  0  0  0  0  0  0  0  0  0  0
   -2.2650    1.3597   -0.6415 H   0  0  0  0  0  0  0  0  0  0  0  0
   -1.3238   -1.0197   -1.4901 H   0  0  0  0  0  0  0  0  0  0  0  0
    0.2764   -2.0905   -0.1358 H   0  0  0  0  0  0  0  0  0  0  0  0
    0.0477   -0.9924    1.2206 H   0  0  0  0  0  0  0  0  0  0  0  0
   -2.4028   -0.5507    1.3455 H   0  0  0  0  0  0  0  0  0  0  0  0
   -2.3836   -2.1168    0.5134 H   0  0  0  0  0  0  0  0  0  0  0  0
   -3.3732   -0.7850   -0.1249 H   0  0  0  0  0  0  0  0  0  0  0  0
  1 10  1  0  0  0  0
  2 12  1  6  0  0  0
  2  1  1  0  0  0  0
  2  7  1  0  0  0  0
  2  3  1  0  0  0  0
  3  4  1  0  0  0  0
  3 14  1  0  0  0  0
  4 16  1  0  0  0  0
  5 18  1  0  0  0  0
  5  6  1  0  0  0  0
  5  4  1  0  0  0  0
  6 19  1  6  0  0  0
  6  7  1  0  0  0  0
  6  8  1  0  0  0  0
  7 21  1  0  0  0  0
  8 23  1  0  0  0  0
  8 22  1  0  0  0  0
  9  1  1  0  0  0  0
 11  1  1  0  0  0  0
 13  3  1  0  0  0  0
 15  4  1  0  0  0  0
 17  5  1  0  0  0  0
 20  7  1  0  0  0  0
 24  8  1  0  0  0  0
M  END
>  <Charge>
0.0

>  <InChI>
1/C8H16/c1-7-4-3-5-8(2)6-7/h7-8H,3-6H2,1-2H3/t7-,8+

>  <Molecular Formula>
C_{8}H_{16}

>  <Name>
CIS-1,3-DIMETHYLCYCLOHEXANE

>  <SMILES>
C[C@@H]1CCC[C@@H](C1)C

>  <logK (TRIBUTYL PHOSPHATE)>
3.18

>  <mean polarizability>
14.66

>  <dipole moment>
0.202963620948

$$$$
632
 OpenBabel08101817183D

 24 24  0  0  1  0  0  0  0  0999 V2000
    2.2155   -1.6037   -0.0382 C   0  0  0  0  0  0  0  0  0  0  0  0
    1.1201   -0.6104   -0.4243 C   0  0  2  0  0  0  0  0  0  0  0  0
    1.4645    0.8287   -0.0244 C   0  0  0  0  0  0  0  0  0  0  0  0
    0.4408    1.8340   -0.5937 C   0  0  0  0  0  0  0  0  0  0  0  0
   -0.9715    1.2237   -0.7195 C   0  0  0  0  0  0  0  0  0  0  0  0
   -1.2261    0.1694    0.3636 C   0  0  2  0  0  0  0  0  0  0  0  0
   -0.2430   -1.0112    0.1863 C   0  0  0  0  0  0  0  0  0  0  0  0
   -2.6760   -0.3131    0.3818 C   0  0  0  0  0  0  0  0  0  0  0  0
    2.3927   -1.5813    1.0483 H   0  0  0  0  0  0  0  0  0  0  0  0
    3.1667   -1.3719   -0.5382 H   0  0  0  0  0  0  0  0  0  0  0  0
    1.9355   -2.6328   -0.3067 H   0  0  0  0  0  0  0  0  0  0  0  0
    1.0222   -0.6300   -1.5243 H   0  0  0  0  0  0  0  0  0  0  0  0
    2.4791    1.0883   -0.3620 H   0  0  0  0  0  0  0  0  0  0  0  0
    1.4862    0.8886    1.0770 H   0  0  0  0  0  0  0  0  0  0  0  0
    0.4057    2.7239    0.0526 H   0  0  0  0  0  0  0  0  0  0  0  0
    0.7748    2.1865   -1.5812 H   0  0  0  0  0  0  0  0  0  0  0  0
   -1.7330    2.0165   -0.6697 H   0  0  0  0  0  0  0  0  0  0  0  0
   -1.0943    0.7461   -1.7063 H   0  0  0  0  0  0  0  0  0  0  0  0
   -1.0186    0.6450    1.3387 H   0  0  0  0  0  0  0  0  0  0  0  0
   -0.7108   -1.7799   -0.4511 H   0  0  0  0  0  0  0  0  0  0  0  0
   -0.0749   -1.4896    1.1656 H   0  0  0  0  0  0  0  0  0  0  0  0
   -3.3739    0.5097    0.5926 H   0  0  0  0  0  0  0  0  0  0  0  0
   -2.8300   -1.0897    1.1452 H   0  0  0  0  0  0  0  0  0  0  0  0
   -2.9518   -0.7466   -0.5921 H   0  0  0  0  0  0  0  0  0  0  0  0
  1  9  1  0  0  0  0
  2 12  1  6  0  0  0
  2  1  1  0  0  0  0
  2  3  1  0  0  0  0
  2  7  1  0  0  0  0
  3 14  1  0  0  0  0
  4  3  1  0  0  0  0
  4 15  1  0  0  0  0
  5 17  1  0  0  0  0
  5  4  1  0  0  0  0
  5  6  1  0  0  0  0
  6  8  1  0  0  0  0
  6 19  1  1  0  0  0
  7  6  1  0  0  0  0
  7 21  1  0  0  0  0
  8 22  1  0  0  0  0
  8 23  1  0  0  0  0
 10  1  1  0  0  0  0
 11  1  1  0  0  0  0
 13  3  1  0  0  0  0
 16  4  1  0  0  0  0
 18  5  1  0  0  0  0
 20  7  1  0  0  0  0
 24  8  1  0  0  0  0
M  END
>  <Charge>
0.0

>  <InChI>
1/C8H16/c1-7-4-3-5-8(2)6-7/h7-8H,3-6H2,1-2H3/t7-,8-/m1/s1

>  <Molecular Formula>
C_{8}H_{16}

>  <Name>
TRANS-1,3-DIMETHYLCYCLOHEXANE

>  <SMILES>
C[C@@H]1CCC[C@H](C1)C

>  <logK (TRIBUTYL PHOSPHATE)>
3.29

>  <mean polarizability>
14.73

>  <dipole moment>
0.123364699805

$$$$
633
 OpenBabel08101817183D

 21 22  0  0  0  0  0  0  0  0999 V2000
    2.9091    0.5286    0.1421 C   0  0  0  0  0  0  0  0  0  0  0  0
    2.1171    1.6986    0.1345 C   0  0  0  0  0  0  0  0  0  0  0  0
    0.7433    1.6231    0.0391 C   0  0  0  0  0  0  0  0  0  0  0  0
    0.0908    0.3647   -0.0522 C   0  0  0  0  0  0  0  0  0  0  0  0
    0.8977   -0.8258   -0.0436 C   0  0  0  0  0  0  0  0  0  0  0  0
    2.3088   -0.7075    0.0543 C   0  0  0  0  0  0  0  0  0  0  0  0
    0.2756   -2.0975   -0.1342 C   0  0  0  0  0  0  0  0  0  0  0  0
   -1.0939   -2.2113   -0.2179 C   0  0  0  0  0  0  0  0  0  0  0  0
   -1.8958   -1.0515   -0.2027 C   0  0  0  0  0  0  0  0  0  0  0  0
   -1.3339    0.2158   -0.1243 C   0  0  0  0  0  0  0  0  0  0  0  0
   -2.2350    1.4142   -0.1657 C   0  0  0  0  0  0  0  0  0  0  0  0
   -2.0123    2.4355   -0.7749 O   0  0  0  0  0  0  0  0  0  0  0  0
   -3.4024    1.2936    0.5433 O   0  0  0  0  0  0  0  0  0  0  0  0
    3.9934    0.6086    0.2188 H   0  0  0  0  0  0  0  0  0  0  0  0
    2.5978    2.6747    0.2024 H   0  0  0  0  0  0  0  0  0  0  0  0
    0.1446    2.5302    0.0137 H   0  0  0  0  0  0  0  0  0  0  0  0
    2.9094   -1.6184    0.0601 H   0  0  0  0  0  0  0  0  0  0  0  0
    0.9059   -2.9881   -0.1403 H   0  0  0  0  0  0  0  0  0  0  0  0
   -1.5643   -3.1906   -0.3002 H   0  0  0  0  0  0  0  0  0  0  0  0
   -2.9776   -1.1590   -0.3011 H   0  0  0  0  0  0  0  0  0  0  0  0
   -3.3784    0.4620    1.0490 H   0  0  0  0  0  0  0  0  0  0  0  0
  1 14  1  0  0  0  0
  2  1  1  0  0  0  0
  2 15  1  0  0  0  0
  3  2  2  0  0  0  0
  4  5  1  0  0  0  0
  4  3  1  0  0  0  0
  5  6  1  0  0  0  0
  6 17  1  0  0  0  0
  6  1  2  0  0  0  0
  7  5  2  0  0  0  0
  8  9  2  0  0  0  0
  8  7  1  0  0  0  0
  9 10  1  0  0  0  0
 10  4  2  0  0  0  0
 11 10  1  0  0  0  0
 11 13  1  0  0  0  0
 12 11  2  0  0  0  0
 13 21  1  0  0  0  0
 16  3  1  0  0  0  0
 18  7  1  0  0  0  0
 19  8  1  0  0  0  0
 20  9  1  0  0  0  0
M  END
>  <Charge>
0.0

>  <InChI>
1/C11H8O2/c12-11(13)10-7-3-5-8-4-1-2-6-9(8)10/h1-7H,(H,12,13)

>  <Molecular Formula>
C_{11}H_{8}O_{2}

>  <Name>
NAPHTHOIC ACID

>  <SMILES>
c1ccc2c(c1)cccc2C(=O)O

>  <logK (1-HEXADECENE)>
6.931

>  <dipole moment>
4.39734802687

>  <mean polarizability>
20.94

$$$$
634
 OpenBabel08101817183D

 21 22  0  0  0  0  0  0  0  0999 V2000
   -3.0248    1.0304    0.2109 C   0  0  0  0  0  0  0  0  0  0  0  0
   -3.0672   -0.3646    0.4474 C   0  0  0  0  0  0  0  0  0  0  0  0
   -1.9105   -1.1121    0.4093 C   0  0  0  0  0  0  0  0  0  0  0  0
   -0.6598   -0.4978    0.1335 C   0  0  0  0  0  0  0  0  0  0  0  0
    0.5441   -1.2380    0.0832 C   0  0  0  0  0  0  0  0  0  0  0  0
    1.7580   -0.6229   -0.1712 C   0  0  0  0  0  0  0  0  0  0  0  0
    1.7917    0.7782   -0.4116 C   0  0  0  0  0  0  0  0  0  0  0  0
    0.6347    1.5240   -0.3836 C   0  0  0  0  0  0  0  0  0  0  0  0
   -0.6179    0.9179   -0.1050 C   0  0  0  0  0  0  0  0  0  0  0  0
   -1.8270    1.6576   -0.0596 C   0  0  0  0  0  0  0  0  0  0  0  0
    2.9816   -1.4884   -0.1861 C   0  0  0  0  0  0  0  0  0  0  0  0
    2.9545   -2.6920   -0.3095 O   0  0  0  0  0  0  0  0  0  0  0  0
    4.1843   -0.8517   -0.0403 O   0  0  0  0  0  0  0  0  0  0  0  0
   -3.9476    1.6096    0.2444 H   0  0  0  0  0  0  0  0  0  0  0  0
   -4.0220   -0.8460    0.6582 H   0  0  0  0  0  0  0  0  0  0  0  0
   -1.9378   -2.1877    0.5887 H   0  0  0  0  0  0  0  0  0  0  0  0
    0.5293   -2.3159    0.2474 H   0  0  0  0  0  0  0  0  0  0  0  0
    2.7289    1.2782   -0.6666 H   0  0  0  0  0  0  0  0  0  0  0  0
    0.6683    2.5954   -0.5858 H   0  0  0  0  0  0  0  0  0  0  0  0
   -1.7943    2.7327   -0.2423 H   0  0  0  0  0  0  0  0  0  0  0  0
    4.0337    0.0928    0.1387 H   0  0  0  0  0  0  0  0  0  0  0  0
  1 14  1  0  0  0  0
  1  2  2  0  0  0  0
  2 15  1  0  0  0  0
  3  2  1  0  0  0  0
  3 16  1  0  0  0  0
  4  3  2  0  0  0  0
  5  4  1  0  0  0  0
  5 17  1  0  0  0  0
  6  5  2  0  0  0  0
  7  8  2  0  0  0  0
  7  6  1  0  0  0  0
  8  9  1  0  0  0  0
  9 10  2  0  0  0  0
  9  4  1  0  0  0  0
 10  1  1  0  0  0  0
 11  6  1  0  0  0  0
 11 13  1  0  0  0  0
 12 11  2  0  0  0  0
 13 21  1  0  0  0  0
 18  7  1  0  0  0  0
 19  8  1  0  0  0  0
 20 10  1  0  0  0  0
M  END
>  <Charge>
0.0

>  <InChI>
1/C11H8O2/c12-11(13)10-6-5-8-3-1-2-4-9(8)7-10/h1-7H,(H,12,13)

>  <Molecular Formula>
C_{11}H_{8}O_{2}

>  <Name>
2-NAPHTHOIC ACID

>  <SMILES>
c1ccc2cc(ccc2c1)C(=O)O

>  <logK (1-HEXADECENE)>
6.873

>  <dipole moment>
5.09155331664

>  <mean polarizability>
21.62

$$$$
635
 OpenBabel08101817183D

 18 17  0  0  0  0  0  0  0  0999 V2000
    2.6090   -0.6698   -1.1342 C   0  0  0  0  0  0  0  0  0  0  0  0
    1.9773   -0.3109    0.2186 C   0  0  0  0  0  0  0  0  0  0  0  0
    0.6952    0.4541    0.0778 C   0  0  0  0  0  0  0  0  0  0  0  0
   -0.4987    0.0642    0.5387 C   0  0  0  0  0  0  0  0  0  0  0  0
   -1.7834    0.8211    0.3775 C   0  0  0  0  0  0  0  0  0  0  0  0
   -2.8530    0.0268   -0.3859 C   0  0  0  0  0  0  0  0  0  0  0  0
    1.9433   -1.3204   -1.7173 H   0  0  0  0  0  0  0  0  0  0  0  0
    3.5660   -1.1921   -0.9998 H   0  0  0  0  0  0  0  0  0  0  0  0
    2.8011    0.2318   -1.7332 H   0  0  0  0  0  0  0  0  0  0  0  0
    1.7966   -1.2255    0.8038 H   0  0  0  0  0  0  0  0  0  0  0  0
    2.6999    0.2910    0.7962 H   0  0  0  0  0  0  0  0  0  0  0  0
    0.7614    1.4070   -0.4630 H   0  0  0  0  0  0  0  0  0  0  0  0
   -0.5677   -0.8919    1.0732 H   0  0  0  0  0  0  0  0  0  0  0  0
   -2.1811    1.0807    1.3737 H   0  0  0  0  0  0  0  0  0  0  0  0
   -1.5849    1.7742   -0.1359 H   0  0  0  0  0  0  0  0  0  0  0  0
   -3.7944    0.5892   -0.4515 H   0  0  0  0  0  0  0  0  0  0  0  0
   -3.0682   -0.9289    0.1130 H   0  0  0  0  0  0  0  0  0  0  0  0
   -2.5186   -0.2007   -1.4071 H   0  0  0  0  0  0  0  0  0  0  0  0
  1  8  1  0  0  0  0
  1  2  1  0  0  0  0
  2 11  1  0  0  0  0
  2 10  1  0  0  0  0
  3  2  1  0  0  0  0
  3  4  2  0  0  0  0
  4 13  1  0  0  0  0
  5  4  1  0  0  0  0
  5 14  1  0  0  0  0
  6 17  1  0  0  0  0
  6  5  1  0  0  0  0
  7  1  1  0  0  0  0
  9  1  1  0  0  0  0
 12  3  1  0  0  0  0
 15  5  1  0  0  0  0
 16  6  1  0  0  0  0
 18  6  1  0  0  0  0
M  END
>  <Charge>
0.0

>  <InChI>
1/C6H12/c1-3-5-6-4-2/h5-6H,3-4H2,1-2H3/b6-5+

>  <Molecular Formula>
C_{6}H_{12}

>  <Name>
HEX-3-ENE

>  <SMILES>
CC/C=C/CC

>  <logK (1-HEXADECENE)>
2.569

>  <mean polarizability>
12.09

>  <dipole moment>
0.0349160210949

$$$$
636
 OpenBabel08101817183D

 16 15  0  0  0  0  0  0  0  0999 V2000
   -3.0354   -0.1384    0.0204 C   0  0  0  0  0  0  0  0  0  0  0  0
   -1.5475   -0.1259    0.1594 C   0  0  0  0  0  0  0  0  0  0  0  0
   -0.6799   -0.4327   -0.8214 C   0  0  0  0  0  0  0  0  0  0  0  0
    0.7789   -0.3989   -0.7311 C   0  0  0  0  0  0  0  0  0  0  0  0
    1.5119    0.4224    0.0414 C   0  0  0  0  0  0  0  0  0  0  0  0
    3.0036    0.4061    0.1325 C   0  0  0  0  0  0  0  0  0  0  0  0
   -3.4620    0.8587    0.2150 H   0  0  0  0  0  0  0  0  0  0  0  0
   -3.5016   -0.8192    0.7499 H   0  0  0  0  0  0  0  0  0  0  0  0
   -3.3459   -0.4479   -0.9862 H   0  0  0  0  0  0  0  0  0  0  0  0
   -1.1520    0.1452    1.1438 H   0  0  0  0  0  0  0  0  0  0  0  0
   -1.0904   -0.7659   -1.7815 H   0  0  0  0  0  0  0  0  0  0  0  0
    1.3137   -1.1002   -1.3818 H   0  0  0  0  0  0  0  0  0  0  0  0
    0.9940    1.1731    0.6477 H   0  0  0  0  0  0  0  0  0  0  0  0
    3.4404   -0.3586   -0.5235 H   0  0  0  0  0  0  0  0  0  0  0  0
    3.4341    1.3825   -0.1410 H   0  0  0  0  0  0  0  0  0  0  0  0
    3.3381    0.1997    1.1619 H   0  0  0  0  0  0  0  0  0  0  0  0
  1  2  1  0  0  0  0
  1  7  1  0  0  0  0
  1  8  1  0  0  0  0
  2 10  1  0  0  0  0
  3  4  1  0  0  0  0
  3  2  2  0  0  0  0
  4  5  2  0  0  0  0
  5  6  1  0  0  0  0
  5 13  1  0  0  0  0
  6 16  1  0  0  0  0
  9  1  1  0  0  0  0
 11  3  1  0  0  0  0
 12  4  1  0  0  0  0
 14  6  1  0  0  0  0
 15  6  1  0  0  0  0
M  END
>  <Charge>
0.0

>  <InChI>
1/C6H10/c1-3-5-6-4-2/h3-6H,1-2H3/b5-3+,6-4+

>  <Molecular Formula>
C_{6}H_{10}

>  <Name>
METHYLPENTADIENE

>  <SMILES>
C/C=C/C=C/C

>  <logK (1-HEXADECENE)>
2.831

>  <mean polarizability>
12.49

>  <dipole moment>
0.285888045172

$$$$
637
 OpenBabel08101817183D

 14 13  0  0  0  0  0  0  0  0999 V2000
   -2.7348    0.0454   -0.7061 C   0  0  0  0  0  0  0  0  0  0  0  0
   -1.4622   -0.1731   -0.3235 C   0  0  0  0  0  0  0  0  0  0  0  0
   -0.6465    0.8119    0.3482 C   0  0  0  0  0  0  0  0  0  0  0  0
    0.6410    0.6604    0.7616 C   0  0  0  0  0  0  0  0  0  0  0  0
    1.4648   -0.5173    0.6164 C   0  0  0  0  0  0  0  0  0  0  0  0
    2.7368   -0.5980    1.0509 C   0  0  0  0  0  0  0  0  0  0  0  0
   -3.3198   -0.7216   -1.2109 H   0  0  0  0  0  0  0  0  0  0  0  0
   -3.2252    1.0030   -0.5223 H   0  0  0  0  0  0  0  0  0  0  0  0
   -1.0176   -1.1492   -0.5311 H   0  0  0  0  0  0  0  0  0  0  0  0
   -1.1287    1.7752    0.5371 H   0  0  0  0  0  0  0  0  0  0  0  0
    1.1164    1.5112    1.2580 H   0  0  0  0  0  0  0  0  0  0  0  0
    1.0270   -1.3897    0.1256 H   0  0  0  0  0  0  0  0  0  0  0  0
    3.2206    0.2451    1.5472 H   0  0  0  0  0  0  0  0  0  0  0  0
    3.3281   -1.5034    0.9237 H   0  0  0  0  0  0  0  0  0  0  0  0
  1  8  1  0  0  0  0
  1  2  2  0  0  0  0
  2  3  1  0  0  0  0
  3 10  1  0  0  0  0
  3  4  2  0  0  0  0
  4 11  1  0  0  0  0
  5  4  1  0  0  0  0
  5  6  2  0  0  0  0
  6 13  1  0  0  0  0
  7  1  1  0  0  0  0
  9  2  1  0  0  0  0
 12  5  1  0  0  0  0
 14  6  1  0  0  0  0
M  END
>  <Charge>
0.0

>  <InChI>
1/C6H8/c1-3-5-6-4-2/h3-6H,1-2H2/b6-5-

>  <Molecular Formula>
C_{6}H_{8}

>  <Name>
(Z)-1,3,5-HEXATRIENE

>  <SMILES>
C=C/C=C\C=C

>  <logK (1-HEXADECENE)>
2.768

>  <mean polarizability>
13.8

>  <dipole moment>
0.0408664731655

$$$$
638
 OpenBabel08101817183D

 16 15  0  0  0  0  0  0  0  0999 V2000
    2.8353    0.6607   -0.1067 C   0  0  0  0  0  0  0  0  0  0  0  0
    1.6290   -0.2243   -0.1458 C   0  0  0  0  0  0  0  0  0  0  0  0
    0.4265    0.0881    0.3496 C   0  0  0  0  0  0  0  0  0  0  0  0
   -0.7881   -0.8014    0.3033 C   0  0  0  0  0  0  0  0  0  0  0  0
   -1.9187   -0.1795   -0.4729 C   0  0  0  0  0  0  0  0  0  0  0  0
   -3.1146    0.1345    0.0310 C   0  0  0  0  0  0  0  0  0  0  0  0
    3.2150    0.8632   -1.1204 H   0  0  0  0  0  0  0  0  0  0  0  0
    3.6619    0.1852    0.4441 H   0  0  0  0  0  0  0  0  0  0  0  0
    2.6140    1.6228    0.3734 H   0  0  0  0  0  0  0  0  0  0  0  0
    1.7601   -1.2058   -0.6161 H   0  0  0  0  0  0  0  0  0  0  0  0
    0.2807    1.0682    0.8171 H   0  0  0  0  0  0  0  0  0  0  0  0
   -1.1368   -1.0191    1.3265 H   0  0  0  0  0  0  0  0  0  0  0  0
   -0.5080   -1.7643   -0.1554 H   0  0  0  0  0  0  0  0  0  0  0  0
   -1.7047    0.0401   -1.5236 H   0  0  0  0  0  0  0  0  0  0  0  0
   -3.8905    0.5948   -0.5803 H   0  0  0  0  0  0  0  0  0  0  0  0
   -3.3611   -0.0631    1.0762 H   0  0  0  0  0  0  0  0  0  0  0  0
  1  9  1  0  0  0  0
  1  8  1  0  0  0  0
  2  1  1  0  0  0  0
  2  3  2  0  0  0  0
  3 11  1  0  0  0  0
  4  3  1  0  0  0  0
  4 12  1  0  0  0  0
  5  6  2  0  0  0  0
  5  4  1  0  0  0  0
  6 16  1  0  0  0  0
  7  1  1  0  0  0  0
 10  2  1  0  0  0  0
 13  4  1  0  0  0  0
 14  5  1  0  0  0  0
 15  6  1  0  0  0  0
M  END
>  <Charge>
0.0

>  <InChI>
1/C6H10/c1-3-5-6-4-2/h3-4,6H,1,5H2,2H3/b6-4+

>  <Molecular Formula>
C_{6}H_{10}

>  <Name>
(4E)-1,4-HEXADIENE

>  <SMILES>
C/C=C/CC=C

>  <logK (1-HEXADECENE)>
2.54

>  <mean polarizability>
12.0

>  <dipole moment>
0.530400036204

$$$$
639
 OpenBabel08101817183D

 23 22  0  0  0  0  0  0  0  0999 V2000
    3.2175   -0.7036   -0.1874 C   0  0  0  0  0  0  0  0  0  0  0  0
    2.1620    0.1652    0.4964 C   0  0  0  0  0  0  0  0  0  0  0  0
    0.7439   -0.0806   -0.0272 C   0  0  0  0  0  0  0  0  0  0  0  0
   -0.3052    0.7949    0.6648 C   0  0  0  0  0  0  0  0  0  0  0  0
   -1.7665    0.6165    0.2022 C   0  0  0  0  0  0  0  0  0  0  0  0
   -2.3062   -0.7905    0.4849 C   0  0  0  0  0  0  0  0  0  0  0  0
   -1.9693    0.9981   -1.2689 C   0  0  0  0  0  0  0  0  0  0  0  0
    4.2232   -0.5058    0.2078 H   0  0  0  0  0  0  0  0  0  0  0  0
    3.2433   -0.5183   -1.2711 H   0  0  0  0  0  0  0  0  0  0  0  0
    3.0070   -1.7731   -0.0414 H   0  0  0  0  0  0  0  0  0  0  0  0
    2.1822   -0.0160    1.5838 H   0  0  0  0  0  0  0  0  0  0  0  0
    2.4170    1.2296    0.3633 H   0  0  0  0  0  0  0  0  0  0  0  0
    0.4960   -1.1462    0.1076 H   0  0  0  0  0  0  0  0  0  0  0  0
    0.7310    0.1012   -1.1144 H   0  0  0  0  0  0  0  0  0  0  0  0
   -0.2596    0.6071    1.7512 H   0  0  0  0  0  0  0  0  0  0  0  0
   -0.0251    1.8536    0.5296 H   0  0  0  0  0  0  0  0  0  0  0  0
   -2.3636    1.3213    0.8063 H   0  0  0  0  0  0  0  0  0  0  0  0
   -1.7966   -1.5493   -0.1263 H   0  0  0  0  0  0  0  0  0  0  0  0
   -2.1746   -1.0667    1.5410 H   0  0  0  0  0  0  0  0  0  0  0  0
   -3.3789   -0.8523    0.2535 H   0  0  0  0  0  0  0  0  0  0  0  0
   -3.0351    0.9734   -1.5367 H   0  0  0  0  0  0  0  0  0  0  0  0
   -1.5949    2.0109   -1.4766 H   0  0  0  0  0  0  0  0  0  0  0  0
   -1.4477    0.3030   -1.9425 H   0  0  0  0  0  0  0  0  0  0  0  0
  1 10  1  0  0  0  0
  1  8  1  0  0  0  0
  1  2  1  0  0  0  0
  2 11  1  0  0  0  0
  3 13  1  0  0  0  0
  3  2  1  0  0  0  0
  3  4  1  0  0  0  0
  4 15  1  0  0  0  0
  5  6  1  0  0  0  0
  5  4  1  0  0  0  0
  5 17  1  0  0  0  0
  6 19  1  0  0  0  0
  7  5  1  0  0  0  0
  9  1  1  0  0  0  0
 12  2  1  0  0  0  0
 14  3  1  0  0  0  0
 16  4  1  0  0  0  0
 18  6  1  0  0  0  0
 20  6  1  0  0  0  0
 21  7  1  0  0  0  0
 22  7  1  0  0  0  0
 23  7  1  0  0  0  0
M  END
>  <Charge>
0.0

>  <InChI>
1/C7H16/c1-4-5-6-7(2)3/h7H,4-6H2,1-3H3

>  <Molecular Formula>
C_{7}H_{16}

>  <Name>
ISOHEPTANE

>  <SMILES>
CCCCC(C)C

>  <logK (1-HEXADECENE)>
2.89848925695

>  <dipole moment>
0.159874821785

>  <mean polarizability>
13.7

$$$$
640
 OpenBabel08101817183D

 23 22  0  0  1  0  0  0  0  0999 V2000
    3.2720   -0.3080    0.0183 C   0  0  0  0  0  0  0  0  0  0  0  0
    1.7987   -0.6304   -0.2363 C   0  0  0  0  0  0  0  0  0  0  0  0
    0.8796    0.5739   -0.0131 C   0  0  0  0  0  0  0  0  0  0  0  0
   -0.6074    0.3507   -0.3463 C   0  0  2  0  0  0  0  0  0  0  0  0
   -1.3456    1.6941   -0.3770 C   0  0  0  0  0  0  0  0  0  0  0  0
   -1.2712   -0.6433    0.6236 C   0  0  0  0  0  0  0  0  0  0  0  0
   -2.6978   -1.0518    0.2511 C   0  0  0  0  0  0  0  0  0  0  0  0
    3.9136   -1.1807   -0.1659 H   0  0  0  0  0  0  0  0  0  0  0  0
    3.6192    0.5051   -0.6358 H   0  0  0  0  0  0  0  0  0  0  0  0
    3.4361    0.0125    1.0574 H   0  0  0  0  0  0  0  0  0  0  0  0
    1.4956   -1.4664    0.4125 H   0  0  0  0  0  0  0  0  0  0  0  0
    1.6752   -0.9875   -1.2722 H   0  0  0  0  0  0  0  0  0  0  0  0
    1.2519    1.4110   -0.6282 H   0  0  0  0  0  0  0  0  0  0  0  0
    0.9643    0.9123    1.0353 H   0  0  0  0  0  0  0  0  0  0  0  0
   -0.6577   -0.0883   -1.3607 H   0  0  0  0  0  0  0  0  0  0  0  0
   -1.3260    2.1713    0.6153 H   0  0  0  0  0  0  0  0  0  0  0  0
   -2.3967    1.5843   -0.6737 H   0  0  0  0  0  0  0  0  0  0  0  0
   -0.8728    2.3863   -1.0878 H   0  0  0  0  0  0  0  0  0  0  0  0
   -0.6533   -1.5519    0.6867 H   0  0  0  0  0  0  0  0  0  0  0  0
   -1.2650   -0.2006    1.6350 H   0  0  0  0  0  0  0  0  0  0  0  0
   -3.0900   -1.7986    0.9546 H   0  0  0  0  0  0  0  0  0  0  0  0
   -2.7329   -1.4947   -0.7551 H   0  0  0  0  0  0  0  0  0  0  0  0
   -3.3898   -0.1992    0.2624 H   0  0  0  0  0  0  0  0  0  0  0  0
  1 10  1  0  0  0  0
  2  3  1  0  0  0  0
  2  1  1  0  0  0  0
  2 11  1  0  0  0  0
  3 14  1  0  0  0  0
  4 15  1  6  0  0  0
  4  3  1  0  0  0  0
  4  6  1  0  0  0  0
  5  4  1  0  0  0  0
  5 16  1  0  0  0  0
  6 19  1  0  0  0  0
  6 20  1  0  0  0  0
  7 23  1  0  0  0  0
  7  6  1  0  0  0  0
  7 21  1  0  0  0  0
  8  1  1  0  0  0  0
  9  1  1  0  0  0  0
 12  2  1  0  0  0  0
 13  3  1  0  0  0  0
 17  5  1  0  0  0  0
 18  5  1  0  0  0  0
 22  7  1  0  0  0  0
M  END
>  <Charge>
0.0

>  <InChI>
1/C7H16/c1-4-6-7(3)5-2/h7H,4-6H2,1-3H3

>  <Molecular Formula>
C_{7}H_{16}

>  <Name>
3-METHYLHEXANE

>  <SMILES>
CCCC(C)CC

>  <logK (1-HEXADECENE)>
2.93669360962

>  <mean polarizability>
13.74

>  <dipole moment>
0.134896084537

$$$$
641
 OpenBabel08101817183D

 23 22  0  0  0  0  0  0  0  0999 V2000
   -2.1777   -1.3940    0.3748 C   0  0  0  0  0  0  0  0  0  0  0  0
   -1.2302   -1.0116   -0.7659 C   0  0  0  0  0  0  0  0  0  0  0  0
   -0.0617   -0.0773   -0.3831 C   0  0  0  0  0  0  0  0  0  0  0  0
    0.9176   -0.7528    0.6109 C   0  0  0  0  0  0  0  0  0  0  0  0
    2.3988   -0.5579    0.2735 C   0  0  0  0  0  0  0  0  0  0  0  0
   -0.5790    1.2881    0.1060 C   0  0  0  0  0  0  0  0  0  0  0  0
    0.4908    2.3656    0.2916 C   0  0  0  0  0  0  0  0  0  0  0  0
   -1.6417   -1.8693    1.2085 H   0  0  0  0  0  0  0  0  0  0  0  0
   -2.9373   -2.1068    0.0250 H   0  0  0  0  0  0  0  0  0  0  0  0
   -2.7103   -0.5210    0.7758 H   0  0  0  0  0  0  0  0  0  0  0  0
   -1.8124   -0.5346   -1.5715 H   0  0  0  0  0  0  0  0  0  0  0  0
   -0.8049   -1.9305   -1.2017 H   0  0  0  0  0  0  0  0  0  0  0  0
    0.4989    0.1067   -1.3182 H   0  0  0  0  0  0  0  0  0  0  0  0
    0.7130   -1.8352    0.6380 H   0  0  0  0  0  0  0  0  0  0  0  0
    0.7205   -0.3901    1.6331 H   0  0  0  0  0  0  0  0  0  0  0  0
    2.6830    0.5025    0.2584 H   0  0  0  0  0  0  0  0  0  0  0  0
    2.6302   -0.9732   -0.7183 H   0  0  0  0  0  0  0  0  0  0  0  0
    3.0448   -1.0656    1.0037 H   0  0  0  0  0  0  0  0  0  0  0  0
   -1.1157    1.1502    1.0587 H   0  0  0  0  0  0  0  0  0  0  0  0
   -1.3297    1.6522   -0.6153 H   0  0  0  0  0  0  0  0  0  0  0  0
    1.2164    2.0942    1.0704 H   0  0  0  0  0  0  0  0  0  0  0  0
    0.0369    3.3209    0.5893 H   0  0  0  0  0  0  0  0  0  0  0  0
    1.0497    2.5393   -0.6395 H   0  0  0  0  0  0  0  0  0  0  0  0
  1 10  1  0  0  0  0
  1  8  1  0  0  0  0
  2  3  1  0  0  0  0
  2  1  1  0  0  0  0
  3  6  1  0  0  0  0
  3  4  1  0  0  0  0
  4 14  1  0  0  0  0
  4 15  1  0  0  0  0
  5  4  1  0  0  0  0
  5 18  1  0  0  0  0
  6  7  1  0  0  0  0
  6 19  1  0  0  0  0
  7 22  1  0  0  0  0
  7 21  1  0  0  0  0
  9  1  1  0  0  0  0
 11  2  1  0  0  0  0
 12  2  1  0  0  0  0
 13  3  1  0  0  0  0
 16  5  1  0  0  0  0
 17  5  1  0  0  0  0
 20  6  1  0  0  0  0
 23  7  1  0  0  0  0
M  END
>  <Charge>
0.0

>  <InChI>
1/C7H16/c1-4-7(5-2)6-3/h7H,4-6H2,1-3H3

>  <Molecular Formula>
C_{7}H_{16}

>  <Name>
3-ETHYLPENTANE

>  <SMILES>
CCC(CC)CC

>  <logK (1-HEXADECENE)>
2.97516735785

>  <mean polarizability>
13.53

>  <dipole moment>
0.080278506413

$$$$
642
 OpenBabel08101817183D

 23 22  0  0  1  0  0  0  0  0999 V2000
    2.4457    0.9514    0.4549 C   0  0  0  0  0  0  0  0  0  0  0  0
    0.9665    0.6171    0.6620 C   0  0  0  0  0  0  0  0  0  0  0  0
    0.3290   -0.1735   -0.4955 C   0  0  1  0  0  0  0  0  0  0  0  0
    0.9210   -1.5838   -0.6121 C   0  0  0  0  0  0  0  0  0  0  0  0
   -1.2232   -0.2151   -0.4324 C   0  0  0  0  0  0  0  0  0  0  0  0
   -1.7746   -0.7960    0.8761 C   0  0  0  0  0  0  0  0  0  0  0  0
   -1.8513    1.1538   -0.7194 C   0  0  0  0  0  0  0  0  0  0  0  0
    3.0681    0.0490    0.3889 H   0  0  0  0  0  0  0  0  0  0  0  0
    2.8342    1.5549    1.2865 H   0  0  0  0  0  0  0  0  0  0  0  0
    2.5956    1.5265   -0.4707 H   0  0  0  0  0  0  0  0  0  0  0  0
    0.4138    1.5579    0.8076 H   0  0  0  0  0  0  0  0  0  0  0  0
    0.8506    0.0473    1.5982 H   0  0  0  0  0  0  0  0  0  0  0  0
    0.5780    0.3638   -1.4296 H   0  0  0  0  0  0  0  0  0  0  0  0
    2.0015   -1.5563   -0.8046 H   0  0  0  0  0  0  0  0  0  0  0  0
    0.7671   -2.1636    0.3099 H   0  0  0  0  0  0  0  0  0  0  0  0
    0.4550   -2.1395   -1.4385 H   0  0  0  0  0  0  0  0  0  0  0  0
   -1.5368   -0.8905   -1.2484 H   0  0  0  0  0  0  0  0  0  0  0  0
   -1.3556   -1.7861    1.1006 H   0  0  0  0  0  0  0  0  0  0  0  0
   -2.8666   -0.9068    0.8170 H   0  0  0  0  0  0  0  0  0  0  0  0
   -1.5598   -0.1374    1.7299 H   0  0  0  0  0  0  0  0  0  0  0  0
   -1.6241    1.8813    0.0731 H   0  0  0  0  0  0  0  0  0  0  0  0
   -2.9459    1.0761   -0.7829 H   0  0  0  0  0  0  0  0  0  0  0  0
   -1.4885    1.5694   -1.6705 H   0  0  0  0  0  0  0  0  0  0  0  0
  1  2  1  0  0  0  0
  1  9  1  0  0  0  0
  2 11  1  0  0  0  0
  2 12  1  0  0  0  0
  3 13  1  6  0  0  0
  3  5  1  0  0  0  0
  3  2  1  0  0  0  0
  4  3  1  0  0  0  0
  4 15  1  0  0  0  0
  5  6  1  0  0  0  0
  6 18  1  0  0  0  0
  6 20  1  0  0  0  0
  7  5  1  0  0  0  0
  7 21  1  0  0  0  0
  8  1  1  0  0  0  0
 10  1  1  0  0  0  0
 14  4  1  0  0  0  0
 16  4  1  0  0  0  0
 17  5  1  0  0  0  0
 19  6  1  0  0  0  0
 22  7  1  0  0  0  0
 23  7  1  0  0  0  0
M  END
>  <Charge>
0.0

>  <InChI>
1/C7H16/c1-5-7(4)6(2)3/h6-7H,5H2,1-4H3

>  <Molecular Formula>
C_{7}H_{16}

>  <Name>
UNII:8HPD5L8920

>  <SMILES>
CCC(C)C(C)C

>  <logK (1-HEXADECENE)>
2.90933485871

>  <mean polarizability>
13.55

>  <dipole moment>
0.0861330077777

$$$$
643
 OpenBabel08101817183D

 23 22  0  0  0  0  0  0  0  0999 V2000
   -2.3811    0.1611    0.5526 C   0  0  0  0  0  0  0  0  0  0  0  0
   -0.9537    0.6998    0.4261 C   0  0  0  0  0  0  0  0  0  0  0  0
    0.0719   -0.2113   -0.2946 C   0  0  0  0  0  0  0  0  0  0  0  0
   -0.4214   -0.5595   -1.7095 C   0  0  0  0  0  0  0  0  0  0  0  0
    0.2913   -1.5147    0.4926 C   0  0  0  0  0  0  0  0  0  0  0  0
    1.4144    0.5505   -0.4526 C   0  0  0  0  0  0  0  0  0  0  0  0
    2.1200    1.0037    0.8274 C   0  0  0  0  0  0  0  0  0  0  0  0
   -3.0044    0.8628    1.1240 H   0  0  0  0  0  0  0  0  0  0  0  0
   -2.8600    0.0249   -0.4265 H   0  0  0  0  0  0  0  0  0  0  0  0
   -2.4137   -0.8031    1.0784 H   0  0  0  0  0  0  0  0  0  0  0  0
   -0.9837    1.6660   -0.1061 H   0  0  0  0  0  0  0  0  0  0  0  0
   -0.5738    0.9219    1.4355 H   0  0  0  0  0  0  0  0  0  0  0  0
   -0.6137    0.3505   -2.2972 H   0  0  0  0  0  0  0  0  0  0  0  0
   -1.3467   -1.1505   -1.6880 H   0  0  0  0  0  0  0  0  0  0  0  0
    0.3346   -1.1506   -2.2468 H   0  0  0  0  0  0  0  0  0  0  0  0
    1.0659   -2.1317    0.0140 H   0  0  0  0  0  0  0  0  0  0  0  0
    0.6071   -1.3204    1.5267 H   0  0  0  0  0  0  0  0  0  0  0  0
   -0.6262   -2.1172    0.5347 H   0  0  0  0  0  0  0  0  0  0  0  0
    1.2283    1.4320   -1.0892 H   0  0  0  0  0  0  0  0  0  0  0  0
    2.0997   -0.0954   -1.0266 H   0  0  0  0  0  0  0  0  0  0  0  0
    1.5175    1.7186    1.4034 H   0  0  0  0  0  0  0  0  0  0  0  0
    3.0673    1.5032    0.5819 H   0  0  0  0  0  0  0  0  0  0  0  0
    2.3605    0.1592    1.4873 H   0  0  0  0  0  0  0  0  0  0  0  0
  1 10  1  0  0  0  0
  1  8  1  0  0  0  0
  2  1  1  0  0  0  0
  2 12  1  0  0  0  0
  3  2  1  0  0  0  0
  3  5  1  0  0  0  0
  4 14  1  0  0  0  0
  4  3  1  0  0  0  0
  5 18  1  0  0  0  0
  5 17  1  0  0  0  0
  6  3  1  0  0  0  0
  6  7  1  0  0  0  0
  7 21  1  0  0  0  0
  7 23  1  0  0  0  0
  9  1  1  0  0  0  0
 11  2  1  0  0  0  0
 13  4  1  0  0  0  0
 15  4  1  0  0  0  0
 16  5  1  0  0  0  0
 19  6  1  0  0  0  0
 20  6  1  0  0  0  0
 22  7  1  0  0  0  0
M  END
>  <Charge>
0.0

>  <InChI>
1/C7H16/c1-5-7(3,4)6-2/h5-6H2,1-4H3

>  <Molecular Formula>
C_{7}H_{16}

>  <Name>
3,3-DIMETHYLPENTANE

>  <SMILES>
CCC(C)(C)CC

>  <logK (1-HEXADECENE)>
2.84726184969

>  <mean polarizability>
13.52

>  <dipole moment>
0.0849630538973

$$$$
644
 OpenBabel08101817183D

 15 14  0  0  0  0  0  0  0  0999 V2000
   -2.1134    0.5449   -0.0650 C   0  0  0  0  0  0  0  0  0  0  0  0
   -0.9868   -0.4296    0.3088 C   0  0  0  0  0  0  0  0  0  0  0  0
    0.0641   -0.5265   -0.7577 C   0  0  0  0  0  0  0  0  0  0  0  0
    1.3748   -0.2635   -0.6527 C   0  0  0  0  0  0  0  0  0  0  0  0
    2.1267    0.1801    0.5650 C   0  0  0  0  0  0  0  0  0  0  0  0
   -2.8970    0.5611    0.7045 H   0  0  0  0  0  0  0  0  0  0  0  0
   -2.5833    0.2589   -1.0167 H   0  0  0  0  0  0  0  0  0  0  0  0
   -1.7273    1.5666   -0.1810 H   0  0  0  0  0  0  0  0  0  0  0  0
   -0.5449   -0.1340    1.2705 H   0  0  0  0  0  0  0  0  0  0  0  0
   -1.4255   -1.4299    0.4678 H   0  0  0  0  0  0  0  0  0  0  0  0
   -0.3070   -0.8399   -1.7397 H   0  0  0  0  0  0  0  0  0  0  0  0
    1.9830   -0.3850   -1.5543 H   0  0  0  0  0  0  0  0  0  0  0  0
    2.9156   -0.5435    0.8223 H   0  0  0  0  0  0  0  0  0  0  0  0
    1.4850    0.3013    1.4452 H   0  0  0  0  0  0  0  0  0  0  0  0
    2.6361    1.1390    0.3831 H   0  0  0  0  0  0  0  0  0  0  0  0
  1  2  1  0  0  0  0
  1  6  1  0  0  0  0
  2 10  1  0  0  0  0
  2  9  1  0  0  0  0
  3  4  2  0  0  0  0
  3  2  1  0  0  0  0
  4  5  1  0  0  0  0
  5 13  1  0  0  0  0
  5 14  1  0  0  0  0
  7  1  1  0  0  0  0
  8  1  1  0  0  0  0
 11  3  1  0  0  0  0
 12  4  1  0  0  0  0
 15  5  1  0  0  0  0
M  END
>  <Charge>
0.0

>  <InChI>
1/C5H10/c1-3-5-4-2/h3,5H,4H2,1-2H3/b5-3-

>  <Molecular Formula>
C_{5}H_{10}

>  <Name>
(2Z)-2-PENTENE

>  <SMILES>
CC/C=C\C

>  <logK (1-HEXADECENE)>
2.17275330367

>  <mean polarizability>
9.94

>  <dipole moment>
0.312952817861

$$$$
645
 OpenBabel08101817183D

 18 17  0  0  0  0  0  0  0  0999 V2000
   -1.9799    0.2800    0.9416 C   0  0  0  0  0  0  0  0  0  0  0  0
   -0.8055   -0.3303    0.1713 C   0  0  0  0  0  0  0  0  0  0  0  0
   -0.9351   -0.0652   -1.3309 C   0  0  0  0  0  0  0  0  0  0  0  0
    0.5375    0.1922    0.7285 C   0  0  0  0  0  0  0  0  0  0  0  0
    1.7428   -0.5055    0.1759 C   0  0  0  0  0  0  0  0  0  0  0  0
    2.7513    0.0802   -0.4746 C   0  0  0  0  0  0  0  0  0  0  0  0
   -2.9406   -0.1072    0.5746 H   0  0  0  0  0  0  0  0  0  0  0  0
   -1.9969    1.3743    0.8242 H   0  0  0  0  0  0  0  0  0  0  0  0
   -1.9152    0.0600    2.0165 H   0  0  0  0  0  0  0  0  0  0  0  0
   -0.8249   -1.4232    0.3296 H   0  0  0  0  0  0  0  0  0  0  0  0
   -1.8720   -0.4817   -1.7263 H   0  0  0  0  0  0  0  0  0  0  0  0
   -0.1012   -0.5050   -1.8935 H   0  0  0  0  0  0  0  0  0  0  0  0
   -0.9392    1.0170   -1.5339 H   0  0  0  0  0  0  0  0  0  0  0  0
    0.6134    1.2762    0.5404 H   0  0  0  0  0  0  0  0  0  0  0  0
    0.5235    0.0624    1.8250 H   0  0  0  0  0  0  0  0  0  0  0  0
    1.7765   -1.5901    0.3314 H   0  0  0  0  0  0  0  0  0  0  0  0
    2.7633    1.1572   -0.6544 H   0  0  0  0  0  0  0  0  0  0  0  0
    3.6023   -0.4911   -0.8456 H   0  0  0  0  0  0  0  0  0  0  0  0
  1  9  1  0  0  0  0
  2 10  1  0  0  0  0
  2  4  1  0  0  0  0
  2  1  1  0  0  0  0
  3  2  1  0  0  0  0
  4 15  1  0  0  0  0
  5 16  1  0  0  0  0
  5  4  1  0  0  0  0
  6  5  2  0  0  0  0
  7  1  1  0  0  0  0
  8  1  1  0  0  0  0
 11  3  1  0  0  0  0
 12  3  1  0  0  0  0
 13  3  1  0  0  0  0
 14  4  1  0  0  0  0
 17  6  1  0  0  0  0
 18  6  1  0  0  0  0
M  END
>  <Charge>
0.0

>  <InChI>
1/C6H12/c1-4-5-6(2)3/h4,6H,1,5H2,2-3H3

>  <Molecular Formula>
C_{6}H_{12}

>  <Name>
4-METHYLPENTENE

>  <SMILES>
CC(C)CC=C

>  <logK (1-HEXADECENE)>
2.37360915107

>  <mean polarizability>
11.72

>  <dipole moment>
0.430715129623

$$$$
646
 OpenBabel08101817183D

 18 17  0  0  0  0  0  0  0  0999 V2000
   -0.7595    1.3536    0.6207 C   0  0  0  0  0  0  0  0  0  0  0  0
   -0.2458    0.0558   -0.0391 C   0  0  0  0  0  0  0  0  0  0  0  0
   -0.1107   -1.0407    1.0238 C   0  0  0  0  0  0  0  0  0  0  0  0
   -1.2592   -0.3904   -1.1150 C   0  0  0  0  0  0  0  0  0  0  0  0
    1.0659    0.3651   -0.7276 C   0  0  0  0  0  0  0  0  0  0  0  0
    2.2569   -0.1963   -0.5067 C   0  0  0  0  0  0  0  0  0  0  0  0
   -1.7432    1.1869    1.0834 H   0  0  0  0  0  0  0  0  0  0  0  0
   -0.0664    1.7009    1.3992 H   0  0  0  0  0  0  0  0  0  0  0  0
   -0.8669    2.1582   -0.1210 H   0  0  0  0  0  0  0  0  0  0  0  0
   -1.0845   -1.2317    1.4961 H   0  0  0  0  0  0  0  0  0  0  0  0
    0.2398   -1.9854    0.5849 H   0  0  0  0  0  0  0  0  0  0  0  0
    0.5942   -0.7493    1.8150 H   0  0  0  0  0  0  0  0  0  0  0  0
   -2.2463   -0.5686   -0.6637 H   0  0  0  0  0  0  0  0  0  0  0  0
   -0.9314   -1.3175   -1.6048 H   0  0  0  0  0  0  0  0  0  0  0  0
   -1.3765    0.3798   -1.8909 H   0  0  0  0  0  0  0  0  0  0  0  0
    0.9920    1.1472   -1.4922 H   0  0  0  0  0  0  0  0  0  0  0  0
    3.1375    0.1119   -1.0700 H   0  0  0  0  0  0  0  0  0  0  0  0
    2.4046   -0.9794    0.2375 H   0  0  0  0  0  0  0  0  0  0  0  0
  1  7  1  0  0  0  0
  1  8  1  0  0  0  0
  2  1  1  0  0  0  0
  2  3  1  0  0  0  0
  3 10  1  0  0  0  0
  3 12  1  0  0  0  0
  4 13  1  0  0  0  0
  4  2  1  0  0  0  0
  5  6  2  0  0  0  0
  5  2  1  0  0  0  0
  6 18  1  0  0  0  0
  9  1  1  0  0  0  0
 11  3  1  0  0  0  0
 14  4  1  0  0  0  0
 15  4  1  0  0  0  0
 16  5  1  0  0  0  0
 17  6  1  0  0  0  0
M  END
>  <Charge>
0.0

>  <InChI>
1/C6H12/c1-5-6(2,3)4/h5H,1H2,2-4H3

>  <Molecular Formula>
C_{6}H_{12}

>  <Name>
NEOHEXENE

>  <SMILES>
CC(C)(C)C=C

>  <logK (1-HEXADECENE)>
2.17645394855

>  <mean polarizability>
11.65

>  <dipole moment>
0.414971989794

$$$$
647
 OpenBabel08101817183D

 21 20  0  0  0  0  0  0  0  0999 V2000
   -3.5138   -0.1519    0.2169 C   0  0  0  0  0  0  0  0  0  0  0  0
   -2.0784   -0.3885    0.6853 C   0  0  0  0  0  0  0  0  0  0  0  0
   -1.0264    0.2151   -0.2467 C   0  0  0  0  0  0  0  0  0  0  0  0
    0.4098   -0.0234    0.2253 C   0  0  0  0  0  0  0  0  0  0  0  0
    1.4592    0.5642   -0.6808 C   0  0  0  0  0  0  0  0  0  0  0  0
    2.7810    0.4834   -0.4753 C   0  0  0  0  0  0  0  0  0  0  0  0
    3.4188   -0.2094    0.6968 C   0  0  0  0  0  0  0  0  0  0  0  0
   -3.6858   -0.5910   -0.7765 H   0  0  0  0  0  0  0  0  0  0  0  0
   -4.2420   -0.5977    0.9079 H   0  0  0  0  0  0  0  0  0  0  0  0
   -3.7373    0.9225    0.1456 H   0  0  0  0  0  0  0  0  0  0  0  0
   -1.8956   -1.4715    0.7816 H   0  0  0  0  0  0  0  0  0  0  0  0
   -1.9467    0.0305    1.6967 H   0  0  0  0  0  0  0  0  0  0  0  0
   -1.1511   -0.2040   -1.2596 H   0  0  0  0  0  0  0  0  0  0  0  0
   -1.2024    1.2999   -0.3436 H   0  0  0  0  0  0  0  0  0  0  0  0
    0.5296    0.3852    1.2453 H   0  0  0  0  0  0  0  0  0  0  0  0
    0.5806   -1.1100    0.3346 H   0  0  0  0  0  0  0  0  0  0  0  0
    1.1005    1.0933   -1.5688 H   0  0  0  0  0  0  0  0  0  0  0  0
    3.4490    0.9495   -1.2032 H   0  0  0  0  0  0  0  0  0  0  0  0
    3.0937    0.2291    1.6537 H   0  0  0  0  0  0  0  0  0  0  0  0
    4.5126   -0.1494    0.6591 H   0  0  0  0  0  0  0  0  0  0  0  0
    3.1446   -1.2757    0.7366 H   0  0  0  0  0  0  0  0  0  0  0  0
  1  2  1  0  0  0  0
  1  9  1  0  0  0  0
  2 11  1  0  0  0  0
  2 12  1  0  0  0  0
  3  4  1  0  0  0  0
  3  2  1  0  0  0  0
  4 16  1  0  0  0  0
  4 15  1  0  0  0  0
  5  6  2  0  0  0  0
  5  4  1  0  0  0  0
  6  7  1  0  0  0  0
  7 21  1  0  0  0  0
  7 19  1  0  0  0  0
  8  1  1  0  0  0  0
 10  1  1  0  0  0  0
 13  3  1  0  0  0  0
 14  3  1  0  0  0  0
 17  5  1  0  0  0  0
 18  6  1  0  0  0  0
 20  7  1  0  0  0  0
M  END
>  <Charge>
0.0

>  <InChI>
1/C7H14/c1-3-5-7-6-4-2/h3,5H,4,6-7H2,1-2H3/b5-3-

>  <Molecular Formula>
C_{7}H_{14}

>  <Name>
(Z)-2-HEPTENE

>  <SMILES>
CCCC/C=C\C

>  <logK (1-HEXADECENE)>
3.07090428067

>  <mean polarizability>
13.71

>  <dipole moment>
0.415631665106

$$$$
648
 OpenBabel08101817183D

 21 20  0  0  0  0  0  0  0  0999 V2000
   -3.5479    0.2077   -0.0248 C   0  0  0  0  0  0  0  0  0  0  0  0
   -2.3029   -0.6788   -0.0284 C   0  0  0  0  0  0  0  0  0  0  0  0
   -1.0094    0.0949    0.2354 C   0  0  0  0  0  0  0  0  0  0  0  0
    0.2434   -0.7957    0.2278 C   0  0  0  0  0  0  0  0  0  0  0  0
    1.5076   -0.0474    0.5271 C   0  0  0  0  0  0  0  0  0  0  0  0
    2.5552    0.0649   -0.2974 C   0  0  0  0  0  0  0  0  0  0  0  0
    3.8143    0.8188   -0.0012 C   0  0  0  0  0  0  0  0  0  0  0  0
   -3.6742    0.7123    0.9442 H   0  0  0  0  0  0  0  0  0  0  0  0
   -4.4589   -0.3748   -0.2179 H   0  0  0  0  0  0  0  0  0  0  0  0
   -3.4822    0.9883   -0.7967 H   0  0  0  0  0  0  0  0  0  0  0  0
   -2.2220   -1.1970   -0.9983 H   0  0  0  0  0  0  0  0  0  0  0  0
   -2.4107   -1.4719    0.7298 H   0  0  0  0  0  0  0  0  0  0  0  0
   -1.0838    0.6111    1.2076 H   0  0  0  0  0  0  0  0  0  0  0  0
   -0.8915    0.8877   -0.5212 H   0  0  0  0  0  0  0  0  0  0  0  0
    0.1037   -1.5958    0.9767 H   0  0  0  0  0  0  0  0  0  0  0  0
    0.3339   -1.2973   -0.7491 H   0  0  0  0  0  0  0  0  0  0  0  0
    1.5536    0.4526    1.5029 H   0  0  0  0  0  0  0  0  0  0  0  0
    2.5054   -0.4333   -1.2726 H   0  0  0  0  0  0  0  0  0  0  0  0
    3.9897    1.6135   -0.7431 H   0  0  0  0  0  0  0  0  0  0  0  0
    3.7821    1.2823    0.9939 H   0  0  0  0  0  0  0  0  0  0  0  0
    4.6945    0.1583   -0.0410 H   0  0  0  0  0  0  0  0  0  0  0  0
  1  8  1  0  0  0  0
  2  1  1  0  0  0  0
  2  3  1  0  0  0  0
  2 12  1  0  0  0  0
  3 13  1  0  0  0  0
  4  3  1  0  0  0  0
  4  5  1  0  0  0  0
  4 15  1  0  0  0  0
  5 17  1  0  0  0  0
  6  7  1  0  0  0  0
  6  5  2  0  0  0  0
  7 20  1  0  0  0  0
  9  1  1  0  0  0  0
 10  1  1  0  0  0  0
 11  2  1  0  0  0  0
 14  3  1  0  0  0  0
 16  4  1  0  0  0  0
 18  6  1  0  0  0  0
 19  7  1  0  0  0  0
 21  7  1  0  0  0  0
M  END
>  <Charge>
0.0

>  <InChI>
1/C7H14/c1-3-5-7-6-4-2/h3,5H,4,6-7H2,1-2H3/b5-3+

>  <Molecular Formula>
C_{7}H_{14}

>  <Name>
(E)-2-HEPTENE

>  <SMILES>
CCCC/C=C/C

>  <logK (1-HEXADECENE)>
3.05379038469

>  <mean polarizability>
14.04

>  <dipole moment>
0.0504794614393

$$$$
649
 OpenBabel08101817183D

 21 20  0  0  0  0  0  0  0  0999 V2000
    3.1046   -1.0267   -0.3034 C   0  0  0  0  0  0  0  0  0  0  0  0
    2.0940    0.1142   -0.4125 C   0  0  0  0  0  0  0  0  0  0  0  0
    0.9202   -0.0309    0.5702 C   0  0  0  0  0  0  0  0  0  0  0  0
   -0.0452    1.1149    0.4998 C   0  0  0  0  0  0  0  0  0  0  0  0
   -1.3654    1.0716    0.2676 C   0  0  0  0  0  0  0  0  0  0  0  0
   -2.2239   -0.1350    0.0234 C   0  0  0  0  0  0  0  0  0  0  0  0
   -2.9890   -0.0540   -1.3056 C   0  0  0  0  0  0  0  0  0  0  0  0
    2.6356   -1.9959   -0.5277 H   0  0  0  0  0  0  0  0  0  0  0  0
    3.9414   -0.8928   -1.0024 H   0  0  0  0  0  0  0  0  0  0  0  0
    3.5241   -1.0911    0.7113 H   0  0  0  0  0  0  0  0  0  0  0  0
    2.5978    1.0775   -0.2310 H   0  0  0  0  0  0  0  0  0  0  0  0
    1.6978    0.1679   -1.4383 H   0  0  0  0  0  0  0  0  0  0  0  0
    1.3333   -0.0913    1.5936 H   0  0  0  0  0  0  0  0  0  0  0  0
    0.4111   -0.9894    0.3913 H   0  0  0  0  0  0  0  0  0  0  0  0
    0.4044    2.1026    0.6511 H   0  0  0  0  0  0  0  0  0  0  0  0
   -1.9026    2.0264    0.2447 H   0  0  0  0  0  0  0  0  0  0  0  0
   -1.6246   -1.0556    0.0520 H   0  0  0  0  0  0  0  0  0  0  0  0
   -2.9557   -0.2216    0.8453 H   0  0  0  0  0  0  0  0  0  0  0  0
   -2.2967   -0.0193   -2.1576 H   0  0  0  0  0  0  0  0  0  0  0  0
   -3.6493   -0.9221   -1.4372 H   0  0  0  0  0  0  0  0  0  0  0  0
   -3.6121    0.8506   -1.3483 H   0  0  0  0  0  0  0  0  0  0  0  0
  1 10  1  0  0  0  0
  2  1  1  0  0  0  0
  2 11  1  0  0  0  0
  2  3  1  0  0  0  0
  3 13  1  0  0  0  0
  4  3  1  0  0  0  0
  4 15  1  0  0  0  0
  5  4  2  0  0  0  0
  6 17  1  0  0  0  0
  6  5  1  0  0  0  0
  6 18  1  0  0  0  0
  7  6  1  0  0  0  0
  8  1  1  0  0  0  0
  9  1  1  0  0  0  0
 12  2  1  0  0  0  0
 14  3  1  0  0  0  0
 16  5  1  0  0  0  0
 19  7  1  0  0  0  0
 20  7  1  0  0  0  0
 21  7  1  0  0  0  0
M  END
>  <Charge>
0.0

>  <InChI>
1/C7H14/c1-3-5-7-6-4-2/h5,7H,3-4,6H2,1-2H3/b7-5-

>  <Molecular Formula>
C_{7}H_{14}

>  <Name>
(Z)-3-HEPTENE

>  <SMILES>
CCC/C=C\CC

>  <logK (1-HEXADECENE)>
3.0151122664

>  <mean polarizability>
13.9

>  <dipole moment>
0.299875495502

$$$$
650
 OpenBabel08101817183D

 21 20  0  0  0  0  0  0  0  0999 V2000
   -3.5810    0.0444    0.3265 C   0  0  0  0  0  0  0  0  0  0  0  0
   -2.1400    0.5419    0.2193 C   0  0  0  0  0  0  0  0  0  0  0  0
   -1.2361   -0.4086   -0.5829 C   0  0  0  0  0  0  0  0  0  0  0  0
    0.1617    0.1054   -0.7541 C   0  0  0  0  0  0  0  0  0  0  0  0
    1.2735   -0.5023   -0.3245 C   0  0  0  0  0  0  0  0  0  0  0  0
    2.6701    0.0213   -0.4847 C   0  0  0  0  0  0  0  0  0  0  0  0
    3.3938    0.2158    0.8551 C   0  0  0  0  0  0  0  0  0  0  0  0
   -4.2035    0.7352    0.9113 H   0  0  0  0  0  0  0  0  0  0  0  0
   -4.0403   -0.0588   -0.6673 H   0  0  0  0  0  0  0  0  0  0  0  0
   -3.6273   -0.9401    0.8142 H   0  0  0  0  0  0  0  0  0  0  0  0
   -2.1250    1.5369   -0.2539 H   0  0  0  0  0  0  0  0  0  0  0  0
   -1.7119    0.6767    1.2247 H   0  0  0  0  0  0  0  0  0  0  0  0
   -1.2121   -1.3965   -0.0954 H   0  0  0  0  0  0  0  0  0  0  0  0
   -1.6944   -0.5624   -1.5766 H   0  0  0  0  0  0  0  0  0  0  0  0
    0.2592    1.0683   -1.2711 H   0  0  0  0  0  0  0  0  0  0  0  0
    1.1779   -1.4625    0.1980 H   0  0  0  0  0  0  0  0  0  0  0  0
    3.2543   -0.6844   -1.1004 H   0  0  0  0  0  0  0  0  0  0  0  0
    2.6443    0.9706   -1.0408 H   0  0  0  0  0  0  0  0  0  0  0  0
    3.4417   -0.7270    1.4181 H   0  0  0  0  0  0  0  0  0  0  0  0
    4.4239    0.5661    0.7031 H   0  0  0  0  0  0  0  0  0  0  0  0
    2.8712    0.9512    1.4813 H   0  0  0  0  0  0  0  0  0  0  0  0
  1 10  1  0  0  0  0
  1  8  1  0  0  0  0
  2  1  1  0  0  0  0
  2 12  1  0  0  0  0
  3 13  1  0  0  0  0
  3  2  1  0  0  0  0
  4  3  1  0  0  0  0
  4  5  2  0  0  0  0
  5 16  1  0  0  0  0
  6  5  1  0  0  0  0
  6  7  1  0  0  0  0
  7 19  1  0  0  0  0
  7 21  1  0  0  0  0
  9  1  1  0  0  0  0
 11  2  1  0  0  0  0
 14  3  1  0  0  0  0
 15  4  1  0  0  0  0
 17  6  1  0  0  0  0
 18  6  1  0  0  0  0
 20  7  1  0  0  0  0
M  END
>  <Charge>
0.0

>  <InChI>
1/C7H14/c1-3-5-7-6-4-2/h5,7H,3-4,6H2,1-2H3/b7-5+

>  <Molecular Formula>
C_{7}H_{14}

>  <Name>
HEPT-3-ENE

>  <SMILES>
CCC/C=C/CC

>  <logK (1-HEXADECENE)>
3.00350976473

>  <mean polarizability>
14.08

>  <dipole moment>
0.0659158211358

$$$$
651
 OpenBabel08101817183D

 21 20  0  0  0  0  0  0  0  0999 V2000
    1.4763    0.5201   -1.3721 C   0  0  0  0  0  0  0  0  0  0  0  0
    1.7295   -0.5680   -0.3252 C   0  0  0  0  0  0  0  0  0  0  0  0
    1.2130   -0.2453    1.0871 C   0  0  0  0  0  0  0  0  0  0  0  0
   -0.2644   -0.5854    1.3820 C   0  0  0  0  0  0  0  0  0  0  0  0
   -1.3072    0.1826    0.5911 C   0  0  0  0  0  0  0  0  0  0  0  0
   -1.6537    1.4335    0.9228 C   0  0  0  0  0  0  0  0  0  0  0  0
   -1.9525   -0.5396   -0.5599 C   0  0  0  0  0  0  0  0  0  0  0  0
    0.4090    0.7407   -1.4948 H   0  0  0  0  0  0  0  0  0  0  0  0
    1.9688    1.4590   -1.0807 H   0  0  0  0  0  0  0  0  0  0  0  0
    1.8754    0.2265   -2.3529 H   0  0  0  0  0  0  0  0  0  0  0  0
    1.2962   -1.5248   -0.6619 H   0  0  0  0  0  0  0  0  0  0  0  0
    2.8153   -0.7424   -0.2662 H   0  0  0  0  0  0  0  0  0  0  0  0
    1.8174   -0.8036    1.8193 H   0  0  0  0  0  0  0  0  0  0  0  0
    1.3835    0.8223    1.3015 H   0  0  0  0  0  0  0  0  0  0  0  0
   -0.4103   -1.6661    1.2224 H   0  0  0  0  0  0  0  0  0  0  0  0
   -0.4361   -0.4066    2.4544 H   0  0  0  0  0  0  0  0  0  0  0  0
   -2.3949    1.9927    0.3507 H   0  0  0  0  0  0  0  0  0  0  0  0
   -1.2052    1.9430    1.7775 H   0  0  0  0  0  0  0  0  0  0  0  0
   -2.6552    0.1025   -1.1056 H   0  0  0  0  0  0  0  0  0  0  0  0
   -1.2021   -0.9185   -1.2712 H   0  0  0  0  0  0  0  0  0  0  0  0
   -2.5026   -1.4230   -0.1976 H   0  0  0  0  0  0  0  0  0  0  0  0
  1  9  1  0  0  0  0
  1  2  1  0  0  0  0
  2 12  1  0  0  0  0
  2  3  1  0  0  0  0
  3 14  1  0  0  0  0
  3  4  1  0  0  0  0
  3 13  1  0  0  0  0
  4 16  1  0  0  0  0
  5  6  2  0  0  0  0
  5  4  1  0  0  0  0
  6 18  1  0  0  0  0
  7 21  1  0  0  0  0
  7  5  1  0  0  0  0
  8  1  1  0  0  0  0
 10  1  1  0  0  0  0
 11  2  1  0  0  0  0
 15  4  1  0  0  0  0
 17  6  1  0  0  0  0
 19  7  1  0  0  0  0
 20  7  1  0  0  0  0
M  END
>  <Charge>
0.0

>  <InChI>
1/C7H14/c1-4-5-6-7(2)3/h2,4-6H2,1,3H3

>  <Molecular Formula>
C_{7}H_{14}

>  <Name>
2-METHYL-1-HEXENE

>  <SMILES>
CCCCC(=C)C

>  <logK (1-HEXADECENE)>
2.96156798506

>  <mean polarizability>
13.35

>  <dipole moment>
0.578259498785

$$$$
652
 OpenBabel08101817183D

 21 20  0  0  0  0  0  0  0  0999 V2000
    1.9201    0.6545   -0.6414 C   0  0  0  0  0  0  0  0  0  0  0  0
    1.2949   -0.5736    0.0293 C   0  0  0  0  0  0  0  0  0  0  0  0
    2.1746   -1.0601    1.1857 C   0  0  0  0  0  0  0  0  0  0  0  0
   -0.1375   -0.3087    0.5218 C   0  0  0  0  0  0  0  0  0  0  0  0
   -1.1572    0.0088   -0.5849 C   0  0  0  0  0  0  0  0  0  0  0  0
   -2.5597    0.1085   -0.0647 C   0  0  0  0  0  0  0  0  0  0  0  0
   -3.3416    1.1876   -0.1487 C   0  0  0  0  0  0  0  0  0  0  0  0
    1.3500    0.9847   -1.5196 H   0  0  0  0  0  0  0  0  0  0  0  0
    1.9692    1.4982    0.0642 H   0  0  0  0  0  0  0  0  0  0  0  0
    2.9453    0.4408   -0.9745 H   0  0  0  0  0  0  0  0  0  0  0  0
    1.2431   -1.3826   -0.7216 H   0  0  0  0  0  0  0  0  0  0  0  0
    3.1925   -1.2931    0.8431 H   0  0  0  0  0  0  0  0  0  0  0  0
    2.2556   -0.2877    1.9658 H   0  0  0  0  0  0  0  0  0  0  0  0
    1.7602   -1.9642    1.6538 H   0  0  0  0  0  0  0  0  0  0  0  0
   -0.4870   -1.1942    1.0784 H   0  0  0  0  0  0  0  0  0  0  0  0
   -0.1234    0.5211    1.2488 H   0  0  0  0  0  0  0  0  0  0  0  0
   -0.8926    0.9441   -1.0994 H   0  0  0  0  0  0  0  0  0  0  0  0
   -1.1084   -0.7951   -1.3415 H   0  0  0  0  0  0  0  0  0  0  0  0
   -2.9477   -0.7873    0.4335 H   0  0  0  0  0  0  0  0  0  0  0  0
   -2.9978    2.1031   -0.6347 H   0  0  0  0  0  0  0  0  0  0  0  0
   -4.3527    1.1955    0.2585 H   0  0  0  0  0  0  0  0  0  0  0  0
  1  2  1  0  0  0  0
  1  9  1  0  0  0  0
  2  4  1  0  0  0  0
  2  3  1  0  0  0  0
  3 14  1  0  0  0  0
  3 13  1  0  0  0  0
  4 15  1  0  0  0  0
  4 16  1  0  0  0  0
  5  6  1  0  0  0  0
  5  4  1  0  0  0  0
  6 19  1  0  0  0  0
  7  6  2  0  0  0  0
  7 21  1  0  0  0  0
  8  1  1  0  0  0  0
 10  1  1  0  0  0  0
 11  2  1  0  0  0  0
 12  3  1  0  0  0  0
 17  5  1  0  0  0  0
 18  5  1  0  0  0  0
 20  7  1  0  0  0  0
M  END
>  <Charge>
0.0

>  <InChI>
1/C7H14/c1-4-5-6-7(2)3/h4,7H,1,5-6H2,2-3H3

>  <Molecular Formula>
C_{7}H_{14}

>  <Name>
5-METHYL-1-HEXENE

>  <SMILES>
CC(C)CCC=C

>  <logK (1-HEXADECENE)>
2.8359956202

>  <mean polarizability>
13.73

>  <dipole moment>
0.530052003132

$$$$
653
 OpenBabel08101817183D

 21 20  0  0  0  0  0  0  0  0999 V2000
   -1.1324   -0.2194    1.3319 C   0  0  0  0  0  0  0  0  0  0  0  0
   -0.6846   -0.1770   -0.1384 C   0  0  0  0  0  0  0  0  0  0  0  0
   -1.3929   -1.3031   -0.9088 C   0  0  0  0  0  0  0  0  0  0  0  0
   -1.0688    1.1742   -0.7635 C   0  0  0  0  0  0  0  0  0  0  0  0
    0.8420   -0.4084   -0.2459 C   0  0  0  0  0  0  0  0  0  0  0  0
    1.7228    0.5998    0.4513 C   0  0  0  0  0  0  0  0  0  0  0  0
    3.0578    0.5693    0.4708 C   0  0  0  0  0  0  0  0  0  0  0  0
   -2.2212   -0.0880    1.4092 H   0  0  0  0  0  0  0  0  0  0  0  0
   -0.6606    0.5737    1.9282 H   0  0  0  0  0  0  0  0  0  0  0  0
   -0.8756   -1.1834    1.7946 H   0  0  0  0  0  0  0  0  0  0  0  0
   -2.4849   -1.1842   -0.8629 H   0  0  0  0  0  0  0  0  0  0  0  0
   -1.1440   -2.2885   -0.4888 H   0  0  0  0  0  0  0  0  0  0  0  0
   -1.0990   -1.3043   -1.9686 H   0  0  0  0  0  0  0  0  0  0  0  0
   -0.5945    2.0175   -0.2429 H   0  0  0  0  0  0  0  0  0  0  0  0
   -0.7660    1.2202   -1.8197 H   0  0  0  0  0  0  0  0  0  0  0  0
   -2.1566    1.3268   -0.7180 H   0  0  0  0  0  0  0  0  0  0  0  0
    1.1106   -0.4419   -1.3154 H   0  0  0  0  0  0  0  0  0  0  0  0
    1.0661   -1.4145    0.1473 H   0  0  0  0  0  0  0  0  0  0  0  0
    1.2220    1.4163    0.9798 H   0  0  0  0  0  0  0  0  0  0  0  0
    3.6248   -0.2157   -0.0348 H   0  0  0  0  0  0  0  0  0  0  0  0
    3.6351    1.3306    0.9946 H   0  0  0  0  0  0  0  0  0  0  0  0
  1  8  1  0  0  0  0
  1 10  1  0  0  0  0
  1  9  1  0  0  0  0
  2  1  1  0  0  0  0
  3 11  1  0  0  0  0
  3 12  1  0  0  0  0
  3  2  1  0  0  0  0
  4 16  1  0  0  0  0
  4 14  1  0  0  0  0
  4  2  1  0  0  0  0
  5  2  1  0  0  0  0
  5 18  1  0  0  0  0
  5  6  1  0  0  0  0
  6  7  2  0  0  0  0
  6 19  1  0  0  0  0
  7 21  1  0  0  0  0
 13  3  1  0  0  0  0
 15  4  1  0  0  0  0
 17  5  1  0  0  0  0
 20  7  1  0  0  0  0
M  END
>  <Charge>
0.0

>  <InChI>
1/C7H14/c1-5-6-7(2,3)4/h5H,1,6H2,2-4H3

>  <Molecular Formula>
C_{7}H_{14}

>  <Name>
4,4-DIMETHYLPENT-1-EN

>  <SMILES>
CC(C)(C)CC=C

>  <logK (1-HEXADECENE)>
2.6260492098

>  <mean polarizability>
13.55

>  <dipole moment>
0.460669554489

$$$$
654
 OpenBabel08101817183D

  4  3  0  0  0  0  0  0  0  0999 V2000
    0.0029   -0.0023    0.5937 P   0  0  0  0  0  0  0  0  0  0  0  0
   -0.7656   -0.9125   -0.1972 H   0  0  0  0  0  0  0  0  0  0  0  0
    1.1727   -0.2046   -0.2044 H   0  0  0  0  0  0  0  0  0  0  0  0
   -0.4100    1.1193   -0.1922 H   0  0  0  0  0  0  0  0  0  0  0  0
  2  1  1  0  0  0  0
  3  1  1  0  0  0  0
  4  1  1  0  0  0  0
M  END
>  <Charge>
0.0

>  <InChI>
1/H3P/h1H3

>  <Molecular Formula>
H_{3}P

>  <Name>
PHOSPHINE

>  <SMILES>
P

>  <logK (ACETIC ACID)>
0.504

>  <mean polarizability>
4.44

>  <dipole moment>
0.558540012901

$$$$
655
 OpenBabel08101817183D

 15 14  0  0  0  0  0  0  0  0999 V2000
    1.7196   -0.0585    0.7058 C   0  0  0  0  0  0  0  0  0  0  0  0
    0.8782    0.0128   -0.5771 C   0  0  0  0  0  0  0  0  0  0  0  0
   -0.6021    0.1903   -0.3344 C   0  0  0  0  0  0  0  0  0  0  0  0
   -1.2470    1.2979   -0.7243 C   0  0  0  0  0  0  0  0  0  0  0  0
   -1.3153   -0.9400    0.3564 C   0  0  0  0  0  0  0  0  0  0  0  0
    1.5978    0.8542    1.3047 H   0  0  0  0  0  0  0  0  0  0  0  0
    1.4364   -0.9133    1.3342 H   0  0  0  0  0  0  0  0  0  0  0  0
    2.7856   -0.1662    0.4647 H   0  0  0  0  0  0  0  0  0  0  0  0
    1.0357   -0.9143   -1.1554 H   0  0  0  0  0  0  0  0  0  0  0  0
    1.2399    0.8396   -1.2052 H   0  0  0  0  0  0  0  0  0  0  0  0
   -0.7255    2.1105   -1.2324 H   0  0  0  0  0  0  0  0  0  0  0  0
   -2.3162    1.4277   -0.5516 H   0  0  0  0  0  0  0  0  0  0  0  0
   -0.9055   -1.1235    1.3608 H   0  0  0  0  0  0  0  0  0  0  0  0
   -1.1937   -1.8797   -0.2053 H   0  0  0  0  0  0  0  0  0  0  0  0
   -2.3882   -0.7374    0.4592 H   0  0  0  0  0  0  0  0  0  0  0  0
  1  6  1  0  0  0  0
  1  7  1  0  0  0  0
  2  3  1  0  0  0  0
  2  1  1  0  0  0  0
  3  5  1  0  0  0  0
  4 12  1  0  0  0  0
  4  3  2  0  0  0  0
  5 15  1  0  0  0  0
  5 13  1  0  0  0  0
  8  1  1  0  0  0  0
  9  2  1  0  0  0  0
 10  2  1  0  0  0  0
 11  4  1  0  0  0  0
 14  5  1  0  0  0  0
M  END
>  <Charge>
0.0

>  <InChI>
1/C5H10/c1-4-5(2)3/h2,4H2,1,3H3

>  <Molecular Formula>
C_{5}H_{10}

>  <Name>
2-METHYLBUT-1-ENE

>  <SMILES>
CCC(=C)C

>  <logK (PHENYLAMINE)>
1.458

>  <mean polarizability>
9.8

>  <dipole moment>
0.589046697966

$$$$
656
 OpenBabel08101817183D

 18 17  0  0  0  0  0  0  0  0999 V2000
    2.0634   -0.0693    0.2695 C   0  0  0  0  0  0  0  0  0  0  0  0
    1.2354   -0.2024   -1.0075 C   0  0  0  0  0  0  0  0  0  0  0  0
   -0.0569    0.6379   -0.9928 C   0  0  0  0  0  0  0  0  0  0  0  0
   -1.0515    0.2500    0.0757 C   0  0  0  0  0  0  0  0  0  0  0  0
   -1.4004    1.0966    1.0537 C   0  0  0  0  0  0  0  0  0  0  0  0
   -1.6406   -1.1312   -0.0210 C   0  0  0  0  0  0  0  0  0  0  0  0
    2.3643    0.9752    0.4367 H   0  0  0  0  0  0  0  0  0  0  0  0
    2.9770   -0.6763    0.2180 H   0  0  0  0  0  0  0  0  0  0  0  0
    1.4942   -0.3890    1.1529 H   0  0  0  0  0  0  0  0  0  0  0  0
    1.8381    0.1113   -1.8734 H   0  0  0  0  0  0  0  0  0  0  0  0
    0.9868   -1.2606   -1.1831 H   0  0  0  0  0  0  0  0  0  0  0  0
   -0.5433    0.5419   -1.9789 H   0  0  0  0  0  0  0  0  0  0  0  0
    0.2063    1.6998   -0.8716 H   0  0  0  0  0  0  0  0  0  0  0  0
   -2.1268    0.8179    1.8184 H   0  0  0  0  0  0  0  0  0  0  0  0
   -0.9733    2.0986    1.1184 H   0  0  0  0  0  0  0  0  0  0  0  0
   -0.8643   -1.9074    0.0626 H   0  0  0  0  0  0  0  0  0  0  0  0
   -2.1262   -1.2831   -0.9983 H   0  0  0  0  0  0  0  0  0  0  0  0
   -2.3827   -1.3096    0.7662 H   0  0  0  0  0  0  0  0  0  0  0  0
  1  7  1  0  0  0  0
  1  9  1  0  0  0  0
  2  3  1  0  0  0  0
  2  1  1  0  0  0  0
  3 13  1  0  0  0  0
  3  4  1  0  0  0  0
  4  5  2  0  0  0  0
  5 15  1  0  0  0  0
  5 14  1  0  0  0  0
  6 16  1  0  0  0  0
  6  4  1  0  0  0  0
  6 18  1  0  0  0  0
  8  1  1  0  0  0  0
 10  2  1  0  0  0  0
 11  2  1  0  0  0  0
 12  3  1  0  0  0  0
 17  6  1  0  0  0  0
M  END
>  <Charge>
0.0

>  <InChI>
1/C6H12/c1-4-5-6(2)3/h2,4-5H2,1,3H3

>  <Molecular Formula>
C_{6}H_{12}

>  <Name>
2-METHYLPENT-1-EN

>  <SMILES>
CCCC(=C)C

>  <logK (PHENYLAMINE)>
1.965

>  <mean polarizability>
11.58

>  <dipole moment>
0.616586639692

$$$$
657
 OpenBabel08101817183D

 18 18  0  0  0  0  0  0  0  0999 V2000
   -0.6783   -1.2148   -0.4217 C   0  0  0  0  0  0  0  0  0  0  0  0
    0.8210   -1.1906   -0.1171 C   0  0  0  0  0  0  0  0  0  0  0  0
    1.5041    0.1596   -0.4123 C   0  0  0  0  0  0  0  0  0  0  0  0
    1.3085    1.1990    0.6779 C   0  0  0  0  0  0  0  0  0  0  0  0
    2.2094    1.6003    1.3805 O   0  0  0  0  0  0  0  0  0  0  0  0
    0.0528    1.6921    0.8965 O   0  0  0  0  0  0  0  0  0  0  0  0
   -1.0810    1.2697    0.1044 C   0  0  0  0  0  0  0  0  0  0  0  0
   -1.5037   -0.1761    0.3415 C   0  0  0  0  0  0  0  0  0  0  0  0
   -0.8207   -1.0513   -1.5038 H   0  0  0  0  0  0  0  0  0  0  0  0
   -1.0744   -2.2194   -0.2104 H   0  0  0  0  0  0  0  0  0  0  0  0
    1.3167   -1.9620   -0.7239 H   0  0  0  0  0  0  0  0  0  0  0  0
    1.0022   -1.4646    0.9342 H   0  0  0  0  0  0  0  0  0  0  0  0
    2.5885    0.0268   -0.4919 H   0  0  0  0  0  0  0  0  0  0  0  0
    1.1485    0.5517   -1.3793 H   0  0  0  0  0  0  0  0  0  0  0  0
   -0.8852    1.4604   -0.9637 H   0  0  0  0  0  0  0  0  0  0  0  0
   -1.8752    1.9549    0.4238 H   0  0  0  0  0  0  0  0  0  0  0  0
   -1.4742   -0.3704    1.4253 H   0  0  0  0  0  0  0  0  0  0  0  0
   -2.5591   -0.2654    0.0399 H   0  0  0  0  0  0  0  0  0  0  0  0
  1 10  1  0  0  0  0
  1  2  1  0  0  0  0
  1  8  1  0  0  0  0
  2 12  1  0  0  0  0
  3  2  1  0  0  0  0
  3  4  1  0  0  0  0
  4  6  1  0  0  0  0
  4  5  2  0  0  0  0
  7  8  1  0  0  0  0
  7 16  1  0  0  0  0
  7  6  1  0  0  0  0
  8 17  1  0  0  0  0
  9  1  1  0  0  0  0
 11  2  1  0  0  0  0
 13  3  1  0  0  0  0
 14  3  1  0  0  0  0
 15  7  1  0  0  0  0
 18  8  1  0  0  0  0
M  END
>  <Charge>
0.0

>  <InChI>
1/C6H10O2/c7-6-4-2-1-3-5-8-6/h1-5H2

>  <Molecular Formula>
C_{6}H_{10}O_{2}

>  <Name>
EPSILON-CAPROLACTONE

>  <SMILES>
C1CCC(=O)OCC1

>  <logK (EPSILON-CAPROLACTONE)>
5.335

>  <Formula>
C6H10O2

>  <mean polarizability>
11.77

>  <dipole moment>
4.76698547727

$$$$
